# CIF file generated by openbabel 2.3.2, see http://openbabel.sf.net
data_I
_chemical_name_common '../proteins/pdb/1P82.pdb'
_cell_length_a 1
_cell_length_b 1
_cell_length_c 1
_cell_angle_alpha 90
_cell_angle_beta 90
_cell_angle_gamma 90
_space_group_name_H-M_alt 'P 1'
_space_group_name_Hall 'P 1'
loop_
    _symmetry_equiv_pos_as_xyz
    'x,y,z'
loop_
    _atom_site_type_symbol
    _atom_site_label
    _atom_site_Cartn_x
    _atom_site_Cartn_y
    _atom_site_Cartn_z
      N    N1   -18.48600   -6.14400    6.89400
      C    C2   -17.46200   -7.16700    7.02300
      C    C3   -16.50300   -7.07500    5.83500
      O    O4   -15.72900   -7.99800    5.58500
      C    C5   -18.12400   -8.54200    7.13400
      H    H6   -18.66800   -5.62000    7.72600
      H    H7   -16.90900   -6.96800    7.94100
      H    H8   -17.38800   -9.31700    6.92300
      H    H9   -18.51600   -8.67600    8.14300
      H    H10   -18.94100   -8.61000    6.41500
      N    N11   -16.58600   -5.95500    5.13300
      C    C12   -15.73500   -5.73100    3.97700
      C    C13   -15.41300   -4.23900    3.86600
      O    O14   -15.65600   -3.47800    4.80100
      C    C15   -16.37800   -6.31600    2.71700
      C    C16   -17.10000   -7.62900    3.02900
      C    C17   -17.85800   -8.14300    1.80400
      C    C18   -19.36900   -8.00600    1.99700
      N    N19   -19.90900   -9.19000    2.70500
      H    H20   -17.21800   -5.20900    5.34300
      H    H21   -14.80500   -6.27400    4.14500
      H    H22   -17.08300   -5.59900    2.29800
      H    H23   -15.61300   -6.48900    1.96100
      H    H24   -16.37700   -8.37600    3.35500
      H    H25   -17.79600   -7.47700    3.85400
      H    H26   -17.54800   -7.58400    0.92000
      H    H27   -17.60300   -9.18600    1.62600
      H    H28   -19.59000   -7.10300    2.56500
      H    H29   -19.85700   -7.90100    1.02800
      H    H30   -19.89100   -9.02500    3.69100
      H    H31   -20.85200   -9.35100    2.41100
      H    H32   -19.35100   -9.99100    2.48900
      N    N33   -14.87100   -3.86700    2.71500
      C    C34   -14.51400   -2.48000    2.47100
      C    C35   -13.22300   -2.15000    3.22300
      O    O36   -12.95200   -0.98700    3.51900
      C    C37   -15.68000   -1.56400    2.85200
      C    C38   -15.52000   -0.18100    2.21700
      C    C39   -17.01900   -2.19300    2.46800
      H    H40   -14.67800   -4.49200    1.96100
      H    H41   -14.33500   -2.37000    1.40200
      H    H42   -15.66600   -1.43900    3.93600
      H    H43   -15.57200    0.58200    2.99300
      H    H44   -14.55600   -0.12200    1.71300
      H    H45   -16.31900   -0.01900    1.49500
      H    H46   -17.48900   -2.61900    3.35500
      H    H47   -17.67100   -1.42900    2.04400
      H    H48   -16.85500   -2.97900    1.73200
      N    N49   -12.46100   -3.19500    3.51200
      C    C50   -11.20500   -3.03100    4.22400
      C    C51   -10.04300   -3.15700    3.23700
      O    O52    -9.32200   -4.15400    3.24500
      C    C53   -11.03400   -4.11000    5.29500
      C    C54   -10.15200   -3.60900    6.44200
      O    O55   -10.09200   -2.42900    6.74300
      N    N56    -9.47400   -4.57100    7.06000
      H    H57   -12.68900   -4.13800    3.26800
      H    H58   -11.26100   -2.04100    4.67800
      H    H59   -12.01000   -4.40000    5.68300
      H    H60   -10.59000   -5.00000    4.85100
      H    H61    -9.56800   -5.52100    6.76300
      H    H62    -8.86900   -4.34400    7.82300
      N    N63    -9.89800   -2.13300    2.40800
      C    C64    -8.83600   -2.11700    1.41600
      C    C65    -7.95400   -0.88800    1.64100
      O    O66    -6.93800   -0.71900    0.96900
      C    C67    -9.42100   -2.20600    0.00500
      C    C68    -8.88200   -3.43100   -0.73600
      C    C69    -9.17400   -0.91100   -0.77300
      C    C70    -9.92700   -3.99300   -1.70000
      H    H71   -10.48900   -1.32600    2.40800
      H    H72    -8.23200   -3.01000    1.57200
      H    H73   -10.50000   -2.32900    0.09000
      H    H74    -7.98100   -3.16000   -1.28800
      H    H75    -8.59500   -4.19800   -0.01700
      H    H76    -9.35400   -0.05600   -0.12100
      H    H77    -8.14100   -0.88900   -1.12300
      H    H78    -9.84800   -0.86600   -1.62600
      H    H79    -9.60100   -3.82800   -2.72700
      H    H80   -10.04700   -5.06200   -1.52400
      H    H81   -10.88100   -3.49000   -1.53600
      N    N82    -8.37200   -0.06200    2.58900
      C    C83    -7.63200    1.14600    2.91000
      C    C84    -6.22600    0.76700    3.37900
      O    O85    -5.24700    1.41000    3.00100
      C    C86    -8.40800    1.99700    3.91700
      C    C87    -7.69400    3.32500    4.17600
      C    C88    -8.33800    4.07500    5.34300
      C    C89    -9.78700    4.44900    5.02300
      N    N90   -10.17500    5.68300    5.74100
      H    H91    -9.20000   -0.20800    3.13100
      H    H92    -7.54600    1.72900    1.99300
      H    H93    -9.41200    2.18800    3.54100
      H    H94    -8.51700    1.45000    4.85400
      H    H95    -6.64300    3.14100    4.39400
      H    H96    -7.73000    3.94300    3.27800
      H    H97    -8.30900    3.45600    6.24000
      H    H98    -7.76700    4.97700    5.56100
      H    H99    -9.90300    4.59300    3.94900
      H    H100   -10.45000    3.63200    5.30700
      H    H101    -9.48700    6.39100    5.58400
      H    H102   -11.06100    6.00000    5.40200
      H    H103   -10.24200    5.49300    6.72000
      N    N104    -6.16700   -0.30200    4.21700
      C    C105    -4.89700   -0.77400    4.74200
      C    C106    -4.10700   -1.52800    3.66900
      O    O107    -2.88400   -1.41500    3.60000
      C    C108    -5.26200   -1.64500    5.93200
      C    C109    -6.72800   -2.00500    5.75200
      C    C110    -7.30500   -1.08700    4.68600
      H    H111    -4.32400    0.00000    5.01000
      H    H112    -4.64200   -2.54000    5.96600
      H    H113    -5.10300   -1.11100    6.86900
      H    H114    -6.83100   -3.04800    5.45400
      H    H115    -7.26900   -1.88700    6.69100
      H    H116    -7.75400   -1.65900    3.87300
      H    H117    -8.08700   -0.44700    5.09600
      N    N118    -4.83900   -2.27900    2.86000
      C    C119    -4.22200   -3.05100    1.79400
      C    C120    -3.70000   -2.09800    0.71600
      O    O121    -2.59300   -2.27400    0.21100
      C    C122    -5.19500   -4.10500    1.26400
      C    C123    -4.65100   -5.53200    1.16800
      C    C124    -3.59300   -5.64300    0.06900
      C    C125    -4.12300   -6.00900    2.52300
      H    H126    -5.83300   -2.36400    2.92300
      H    H127    -3.37400   -3.58200    2.22500
      H    H128    -6.07500   -4.11500    1.90700
      H    H129    -5.52900   -3.79800    0.27200
      H    H130    -5.47300   -6.19300    0.89200
      H    H131    -3.86600   -4.99700   -0.76500
      H    H132    -2.62400   -5.33700    0.46500
      H    H133    -3.53500   -6.67500   -0.27600
      H    H134    -4.09700   -5.17000    3.21800
      H    H135    -4.78000   -6.78500    2.91600
      H    H136    -3.11800   -6.41200    2.39900
      N    N137    -4.52400   -1.11100    0.39600
      C    C138    -4.15900   -0.12900   -0.61200
      C    C139    -2.75800    0.42200   -0.33500
      O    O140    -2.00500    0.70900   -1.26400
      C    C141    -5.18900    0.99900   -0.67900
      C    C142    -6.05300    0.88000   -1.93600
      C    C143    -5.87900    2.10300   -2.83800
      O    O144    -5.35000    1.91400   -3.95500
      O    O145    -6.27800    3.20000   -2.39000
      H    H146    -5.42300   -0.97400    0.81100
      H    H147    -4.16200   -0.67200   -1.55800
      H    H148    -5.82400    0.96800    0.20700
      H    H149    -4.68000    1.96200   -0.67200
      H    H150    -5.78100   -0.02200   -2.48400
      H    H151    -7.10100    0.77800   -1.65400
      H    H152    -6.14100    3.92700   -3.00200
      N    N153    -2.45300    0.55400    0.94800
      C    C154    -1.15800    1.06600    1.35900
      C    C155    -0.05400    0.19600    0.75500
      O    O156     0.81900    0.69500    0.04800
      C    C157    -1.00800    1.02900    2.88200
      C    C158    -0.34300    2.26300    3.49700
      O    O159    -1.09900    3.16700    3.91300
      O    O160     0.90600    2.27200    3.53700
      H    H161    -3.07200    0.31900    1.69600
      H    H162    -1.12500    2.09300    0.99300
      H    H163    -1.99700    0.90900    3.32500
      H    H164    -0.42800    0.14800    3.15300
      H    H165     1.26200    3.07100    3.93300
      N    N166    -0.12900   -1.09200    1.05700
      C    C167     0.85300   -2.03800    0.55300
      C    C168     1.05100   -1.80900   -0.94600
      O    O169     2.09000   -2.16400   -1.50100
      C    C170     0.44900   -3.47000    0.90900
      C    C171     1.21100   -4.48400    0.05400
      C    C172     2.72200   -4.25500    0.14800
      C    C173     3.43900   -4.81500   -1.08300
      N    N174     4.55200   -5.70100   -0.67500
      H    H175    -0.84200   -1.49100    1.63400
      H    H176     1.79500   -1.83300    1.06100
      H    H177     0.64900   -3.65700    1.96500
      H    H178    -0.62300   -3.59800    0.76100
      H    H179     0.97200   -5.49500    0.38100
      H    H180     0.89200   -4.40100   -0.98600
      H    H181     2.92700   -3.18700    0.23900
      H    H182     3.11000   -4.73200    1.04700
      H    H183     2.73300   -5.36800   -1.70200
      H    H184     3.82200   -3.99600   -1.69100
      H    H185     4.79400   -5.51500    0.27800
      H    H186     4.26900   -6.65500   -0.76700
      H    H187     5.34600   -5.53000   -1.26000
      N    N188     0.03700   -1.21900   -1.56200
      C    C189     0.08600   -0.93800   -2.98700
      C    C190     0.56700    0.49800   -3.20300
      O    O191     1.27400    0.78000   -4.17000
      C    C192    -1.26400   -1.23900   -3.63900
      C    C193    -2.12100   -2.13400   -2.74000
      C    C194    -1.07700   -1.84100   -5.03400
      C    C195    -3.36100   -2.63200   -3.48300
      H    H196    -0.80600   -0.93200   -1.10400
      H    H197     0.81600   -1.61700   -3.42800
      H    H198    -1.80100   -0.30000   -3.76400
      H    H199    -1.53100   -2.98500   -2.39900
      H    H200    -2.42200   -1.57800   -1.85100
      H    H201    -1.81400   -1.41400   -5.71500
      H    H202    -0.07400   -1.61600   -5.39400
      H    H203    -1.21200   -2.92200   -4.98400
      H    H204    -4.22700   -2.57700   -2.82300
      H    H205    -3.53400   -2.00900   -4.36000
      H    H206    -3.20800   -3.66500   -3.79500
      N    N207     0.16300    1.36800   -2.28900
      C    C208     0.54400    2.76700   -2.36800
      C    C209     2.01000    2.91700   -1.95500
      O    O210     2.72300    3.77000   -2.48200
      C    C211    -0.41600    3.63100   -1.54800
      C    C212     0.19300    4.35900   -0.34800
      C    C213     0.73700    5.72900   -0.75700
      C    C214    -0.81300    4.46200    0.80000
      H    H215    -0.41100    1.13000   -1.50600
      H    H216     0.44600    3.07400   -3.40900
      H    H217    -0.86200    4.37400   -2.21200
      H    H218    -1.22800    2.99800   -1.19000
      H    H219     1.03700    3.77300    0.01500
      H    H220    -0.09200    6.38500   -1.02400
      H    H221     1.29100    6.16300    0.07600
      H    H222     1.40100    5.61500   -1.61500
      H    H223    -0.40300    3.98100    1.68700
      H    H224    -1.01300    5.51200    1.01400
      H    H225    -1.74100    3.96600    0.51500
      N    N226     2.41600    2.07500   -1.01600
      C    C227     3.78400    2.10300   -0.52700
      C    C228     4.73700    1.74200   -1.66700
      O    O229     5.63100    2.51600   -2.00300
      C    C230     3.92400    1.18100    0.68600
      C    C231     5.37000    1.15100    1.18800
      C    C232     2.96400    1.59200    1.80300
      H    H233     1.82900    1.38500   -0.59300
      H    H234     3.99700    3.12200   -0.20100
      H    H235     3.65800    0.17100    0.37100
      H    H236     5.54000    1.99900    1.85100
      H    H237     5.54600    0.22300    1.73200
      H    H238     6.05000    1.21000    0.33900
      H    H239     2.38600    0.72500    2.12300
      H    H240     3.53300    1.98000    2.64700
      H    H241     2.28800    2.36400    1.43500
      N    N242     4.51300    0.56300   -2.23100
      C    C243     5.34100    0.08900   -3.32700
      C    C244     5.36600    1.12000   -4.45700
      O    O245     6.38700    1.29200   -5.12200
      C    C246     4.85300   -1.26900   -3.83400
      C    C247     6.02500   -2.23300   -4.03400
      C    C248     6.06300   -2.76100   -5.47000
      O    O249     5.37600   -2.27700   -6.35500
      N    N250     6.90100   -3.77800   -5.65000
      H    H251     3.78400   -0.06100   -1.95200
      H    H252     6.34000   -0.02400   -2.90700
      H    H253     4.14500   -1.69400   -3.12400
      H    H254     4.32000   -1.13900   -4.77700
      H    H255     6.96100   -1.72500   -3.80500
      H    H256     5.93600   -3.06700   -3.33800
      H    H257     7.43500   -4.12700   -4.88100
      H    H258     6.99600   -4.19200   -6.55600
      N    N259     4.23100    1.78000   -4.64000
      C    C260     4.11100    2.78900   -5.67800
      C    C261     5.17000    3.87000   -5.45800
      O    O262     5.82200    4.30800   -6.40400
      C    C263     2.69000    3.35500   -5.67700
      H    H264     3.40600    1.63400   -4.09400
      H    H265     4.29400    2.30300   -6.63600
      H    H266     2.04100    2.70800   -5.08600
      H    H267     2.69700    4.35500   -5.24400
      H    H268     2.31800    3.40600   -6.70000
      N    N269     5.31000    4.26900   -4.20100
      C    C270     6.27900    5.29200   -3.84400
      C    C271     7.63900    4.63600   -3.60200
      O    O272     8.63800    5.03100   -4.20100
      C    C273     5.86700    6.01700   -2.56200
      C    C274     6.21800    7.50400   -2.63600
      O    O275     5.76400    8.23200   -3.50200
      N    N276     7.04900    7.91200   -1.68100
      H    H277     4.77500    3.90800   -3.43800
      H    H278     6.29200    5.98000   -4.68900
      H    H279     4.79500    5.89900   -2.40100
      H    H280     6.36800    5.56300   -1.70700
      H    H281     7.38500    7.26100   -0.99900
      H    H282     7.33800    8.86800   -1.64400
      N    N283     7.63400    3.64500   -2.72300
      C    C284     8.85500    2.93000   -2.39300
      C    C285     9.52500    2.40900   -3.66700
      O    O286    10.70100    2.04900   -3.65100
      C    C287     8.57600    1.79000   -1.41300
      C    C288     8.98400    2.17600    0.01000
      C    C289    10.09100    1.25800    0.53300
      O    O290     9.90200    0.02700    0.42800
      O    O291    11.09900    1.80700    1.02500
      H    H292     6.81700    3.33000   -2.24000
      H    H293     9.50000    3.66600   -1.91100
      H    H294     7.51600    1.53800   -1.43600
      H    H295     9.12300    0.89900   -1.72200
      H    H296     9.32800    3.21100    0.02500
      H    H297     8.11700    2.11900    0.66800
      H    H298    11.75500    1.17800    1.33400
      N    N299     8.74700    2.38400   -4.73800
      C    C300     9.24900    1.91100   -6.01700
      C    C301    10.32900    2.87000   -6.52100
      O    O302    11.36900    2.43600   -7.01400
      C    C303     8.08700    1.77300   -7.00300
      H    H304     7.79100    2.67700   -4.74200
      H    H305     9.69300    0.92900   -5.85700
      H    H306     7.68000    0.76300   -6.94500
      H    H307     7.30800    2.49400   -6.75000
      H    H308     8.44400    1.96400   -8.01400
      N    N309    10.04700    4.15700   -6.38000
      C    C310    10.98200    5.18100   -6.81400
      C    C311    12.11300    5.33300   -5.79600
      O    O312    13.25000    4.94800   -6.06400
      C    C313    10.26600    6.51400   -7.04400
      C    C314    11.18500    7.51400   -7.74900
      C    C315    10.53300    8.89600   -7.82900
      O    O316    11.24300    9.87800   -7.52400
      O    O317     9.33700    8.93900   -8.19300
      H    H318     9.19800    4.50200   -5.97800
      H    H319    11.38300    4.82300   -7.76300
      H    H320     9.37100    6.35200   -7.64300
      H    H321     9.94100    6.92500   -6.08800
      H    H322    12.13100    7.58500   -7.21300
      H    H323    11.41400    7.15800   -8.75300
      H    H324     8.98600    9.83200   -8.22300
      N    N325    11.76300    5.89600   -4.64900
      C    C326    12.73400    6.10400   -3.58900
      C    C327    13.72800    4.94200   -3.54300
      O    O328    13.38100    3.80800   -3.87100
      C    C329    11.97000    6.30300   -2.27900
      O    O330    12.25400    7.65100   -1.91300
      C    C331    12.55000    5.47500   -1.13100
      H    H332    10.83500    6.20700   -4.43900
      H    H333    13.30500    7.00400   -3.81900
      H    H334    10.90900    6.09400   -2.41200
      H    H335    11.92600    8.27400   -2.62200
      H    H336    12.65200    4.43600   -1.44600
      H    H337    13.53000    5.86800   -0.85700
      H    H338    11.88500    5.53000   -0.27100
      N    N339    14.94600    5.26400   -3.13100
      C    C340    15.99300    4.26000   -3.03600
      C    C341    15.59600    3.16600   -2.04500
      O    O342    14.94700    3.44100   -1.03700
      C    C343    17.29700    4.97100   -2.66600
      O    O344    18.28000    3.94000   -2.71300
      C    C345    17.31600    5.43700   -1.20900
      H    H346    15.22200    6.18800   -2.86500
      H    H347    16.10300    3.78500   -4.01100
      H    H348    17.49300    5.80200   -3.34400
      H    H349    18.05300    3.22100   -2.05700
      H    H350    17.08500    6.50100   -1.16500
      H    H351    16.57200    4.88000   -0.63900
      H    H352    18.30400    5.26200   -0.78500
      N    N353    16.00000    1.94500   -2.36600
      C    C354    15.69300    0.80800   -1.51500
      C    C355    15.83000    1.19200   -0.04100
      O    O356    16.49100    2.17500    0.29000
      C    C357    16.60500   -0.35100   -1.92900
      O    O358    17.92000    0.13900   -1.68400
      C    C359    16.57800   -0.60700   -3.43700
      H    H360    16.52700    1.72900   -3.18800
      H    H361    14.65300    0.52800   -1.67800
      H    H362    16.35800   -1.25600   -1.37500
      H    H363    18.05300    1.01400   -2.14800
      H    H364    16.83400   -1.64700   -3.63200
      H    H365    15.57900   -0.40000   -3.82300
      H    H366    17.30000    0.04400   -3.92900
      N    N367    15.19500    0.39500    0.80700
      C    C368    15.23700    0.63900    2.23800
      C    C369    16.68200    0.52500    2.72800
      O    O370    17.08600   -0.51600    3.24300
      C    C371    14.30100   -0.33900    2.95100
      H    H372    14.66000   -0.40300    0.52900
      H    H373    14.88100    1.65500    2.41200
      H    H374    14.52300   -0.34300    4.01800
      H    H375    13.26700   -0.03000    2.79700
      H    H376    14.44500   -1.34100    2.54600
      N    N377    17.42100    1.61100    2.55100
      C    C378    18.81100    1.64700    2.96900
      C    C379    18.92200    1.28000    4.44900
      O    O380    19.97700    0.84200    4.90700
      C    C381    19.42800    3.02400    2.71600
      O    O382    20.84800    3.00100    2.82400
      H    H383    17.08300    2.45500    2.13100
      H    H384    19.31700    0.90400    2.35100
      H    H385    19.14600    3.37000    1.72000
      H    H386    19.02000    3.74000    3.42900
      H    H387    21.19900    3.93300    2.92100
