# CIF file generated by openbabel 2.3.2, see http://openbabel.sf.net
data_I
_chemical_name_common '../proteins/pdb/1P83.pdb'
_cell_length_a 1
_cell_length_b 1
_cell_length_c 1
_cell_angle_alpha 90
_cell_angle_beta 90
_cell_angle_gamma 90
_space_group_name_H-M_alt 'P 1'
_space_group_name_Hall 'P 1'
loop_
    _symmetry_equiv_pos_as_xyz
    'x,y,z'
loop_
    _atom_site_type_symbol
    _atom_site_label
    _atom_site_Cartn_x
    _atom_site_Cartn_y
    _atom_site_Cartn_z
      N    N1     6.84000   11.51700   -1.88700
      C    C2     5.47900   11.41000   -1.38700
      C    C3     5.09100    9.93400   -1.28700
      O    O4     5.94000    9.05500   -1.42600
      C    C5     4.53800   12.20100   -2.29600
      H    H6     6.92000   11.86500   -2.82000
      H    H7     5.45700   11.85100   -0.39000
      H    H8     3.58500   11.67600   -2.37800
      H    H9     4.37100   13.19200   -1.87400
      H    H10     4.98500   12.29900   -3.28600
      N    N11     3.80800    9.70700   -1.04900
      C    C12     3.29800    8.35200   -0.93000
      C    C13     4.13900    7.41600   -1.80000
      O    O14     4.46400    6.30300   -1.38600
      C    C15     1.80200    8.31200   -1.25400
      C    C16     1.57100    8.05600   -2.74400
      C    C17     1.94000    9.28600   -3.57600
      C    C18     2.51600    8.87700   -4.93300
      N    N19     3.33500    9.97200   -5.49900
      H    H20     3.12400   10.42800   -0.93800
      H    H21     3.40900    8.05000    0.11100
      H    H22     1.31900    7.53000   -0.66800
      H    H23     1.34000    9.25700   -0.96800
      H    H24     2.16700    7.20200   -3.06700
      H    H25     0.52600    7.79800   -2.91500
      H    H26     1.05700    9.90700   -3.72400
      H    H27     2.66700    9.89100   -3.03500
      H    H28     3.12400    7.97900   -4.82100
      H    H29     1.70600    8.63000   -5.62000
      H    H30     4.06000    9.58500   -6.07000
      H    H31     2.75700   10.56900   -6.05500
      H    H32     3.74400   10.50100   -4.75600
      N    N33     4.47000    7.90000   -2.98700
      C    C34     5.26800    7.12000   -3.91800
      C    C35     6.43800    6.48100   -3.16800
      O    O36     6.30900    5.38500   -2.62500
      C    C37     5.71600    8.00000   -5.08700
      C    C38     6.16800    9.37700   -4.59600
      C    C39     6.82200    7.31600   -5.89400
      H    H40     4.20200    8.80600   -3.31600
      H    H41     4.63200    6.33000   -4.31500
      H    H42     4.86000    8.14300   -5.74600
      H    H43     5.58600   10.15000   -5.09900
      H    H44     6.01100    9.44800   -3.52000
      H    H45     7.22500    9.51400   -4.81900
      H    H46     6.58900    6.25800   -6.00600
      H    H47     6.89000    7.77900   -6.87900
      H    H48     7.77300    7.42800   -5.37400
      N    N49     7.55600    7.19300   -3.16200
      C    C50     8.74800    6.70900   -2.48700
      C    C51     8.42200    6.43400   -1.01800
      O    O52     9.12600    5.67700   -0.35300
      C    C53     9.86900    7.75000   -2.53500
      C    C54    11.10300    7.19400   -3.25000
      O    O55    12.08200    6.80000   -2.63700
      N    N56    11.00100    7.18300   -4.57500
      H    H57     7.65300    8.08400   -3.60600
      H    H58     9.03600    5.80700   -3.02600
      H    H59     9.51800    8.64400   -3.05100
      H    H60    10.13600    8.05000   -1.52200
      H    H61    10.16900    7.52200   -5.01600
      H    H62    11.75700    6.83800   -5.13200
      N    N63     7.35200    7.06400   -0.55400
      C    C64     6.92400    6.89600    0.82400
      C    C65     6.09300    5.61700    0.94300
      O    O66     4.86700    5.65700    0.84700
      C    C67     6.19600    8.15000    1.31500
      C    C68     7.15800    9.33500    1.42100
      C    C69     5.47100    7.88100    2.63500
      C    C70     8.60700    8.85700    1.54500
      H    H71     6.78500    7.67800   -1.10200
      H    H72     7.82000    6.78500    1.43400
      H    H73     5.43800    8.41500    0.57900
      H    H74     7.05600    9.97100    0.54100
      H    H75     6.89700    9.94400    2.28700
      H    H76     5.81300    8.59000    3.38900
      H    H77     4.39600    7.99700    2.48900
      H    H78     5.68500    6.86500    2.96600
      H    H79     9.26800    9.72100    1.62300
      H    H80     8.71000    8.23900    2.43600
      H    H81     8.87300    8.27300    0.66500
      N    N82     6.79400    4.51200    1.15100
      C    C83     6.13600    3.22300    1.28500
      C    C84     5.48300    2.84800   -0.04700
      O    O85     4.26700    2.68000   -0.12100
      C    C86     5.16100    3.23900    2.46400
      C    C87     5.91200    3.24300    3.79700
      C    C88     6.53200    1.87300    4.08200
      C    C89     7.76700    2.00500    4.97500
      N    N90     7.44200    1.61900    6.36700
      H    H91     7.79000    4.48700    1.22900
      H    H92     6.90500    2.48500    1.51300
      H    H93     4.52000    4.11900    2.40100
      H    H94     4.50900    2.36700    2.41200
      H    H95     6.69300    4.00200    3.77600
      H    H96     5.22900    3.51100    4.60300
      H    H97     5.79600    1.23000    4.56300
      H    H98     6.80800    1.39300    3.14200
      H    H99     8.56900    1.37400    4.59400
      H    H100     8.13200    3.03200    4.95200
      H    H101     8.28100    1.35600    6.84300
      H    H102     7.02100    2.39300    6.83800
      H    H103     6.80700    0.84700    6.35900
      N    N104     6.34300    2.72400   -1.09400
      C    C105     5.86400    2.37200   -2.41800
      C    C106     5.50400    0.88600   -2.49500
      O    O107     4.57900    0.50400   -3.21000
      C    C108     6.99200    2.75800   -3.36100
      C    C109     8.23500    2.87900   -2.49500
      C    C110     7.79000    2.91600   -1.04200
      H    H111     5.02100    2.86800   -2.62600
      H    H112     7.12800    2.00500   -4.13700
      H    H113     6.77500    3.69900   -3.86500
      H    H114     8.90500    2.03500   -2.66700
      H    H115     8.79100    3.78200   -2.74700
      H    H116     8.27300    2.13200   -0.46000
      H    H117     8.04800    3.86500   -0.57300
      N    N118     6.25400    0.08900   -1.74800
      C    C119     6.02500   -1.34500   -1.72100
      C    C120     5.01200   -1.67600   -0.62300
      O    O121     4.22300   -2.60800   -0.76200
      C    C122     7.35000   -2.09600   -1.58200
      C    C123     8.00100   -2.55700   -2.88700
      C    C124     9.51900   -2.37500   -2.83900
      C    C125     7.60700   -4.00000   -3.21600
      H    H126     7.00400    0.40800   -1.16900
      H    H127     5.59500   -1.62500   -2.68300
      H    H128     8.05600   -1.45300   -1.05500
      H    H129     7.18400   -2.97100   -0.95300
      H    H130     7.62600   -1.93000   -3.69600
      H    H131     9.77100   -1.63100   -2.08300
      H    H132     9.99100   -3.32400   -2.58500
      H    H133     9.87600   -2.04000   -3.81300
      H    H134     6.54600   -4.14200   -3.01000
      H    H135     7.80200   -4.19800   -4.27000
      H    H136     8.19200   -4.68400   -2.60200
      N    N137     5.06800   -0.89200    0.44500
      C    C138     4.16500   -1.09000    1.56600
      C    C139     2.71100   -1.00600    1.09800
      O    O140     1.80300   -1.45200    1.79700
      C    C141     4.44300   -0.07700    2.67800
      C    C142     3.17300    0.69200    3.04900
      C    C143     3.40000    1.56200    4.28600
      O    O144     3.21000    2.79000    4.16000
      O    O145     3.76000    0.97900    5.33300
      H    H146     5.71300   -0.13600    0.55000
      H    H147     4.37800   -2.09400    1.93500
      H    H148     4.82900   -0.59300    3.55600
      H    H149     5.21300    0.62200    2.35500
      H    H150     2.86500    1.31800    2.21100
      H    H151     2.36100   -0.01000    3.23800
      H    H152     3.88600    1.57800    6.07200
      N    N153     2.53600   -0.43100   -0.08300
      C    C154     1.20700   -0.28200   -0.65300
      C    C155     0.96100   -1.40600   -1.66100
      O    O156    -0.16500   -1.59900   -2.11800
      C    C157     1.06900    1.05200   -1.38900
      C    C158     0.48600    2.19400   -0.55400
      O    O159    -0.25100    3.01100   -1.14700
      O    O160     0.79100    2.22400    0.65700
      H    H161     3.27900   -0.07000   -0.64500
      H    H162     0.52400   -0.32700    0.19600
      H    H163     2.05200    1.35300   -1.75200
      H    H164     0.43700    0.90300   -2.26500
      H    H165     0.39500    2.96300    1.12500
      N    N166     2.03100   -2.11800   -1.97800
      C    C167     1.94600   -3.21800   -2.92300
      C    C168     1.95800   -4.54400   -2.16000
      O    O169     1.46200   -5.55500   -2.65600
      C    C170     3.04800   -3.10500   -3.97800
      C    C171     3.50700   -1.65400   -4.14000
      C    C172     2.71300   -0.94800   -5.24000
      C    C173     2.82900    0.57200   -5.11000
      N    N174     1.98600    1.24500   -6.12300
      H    H175     2.94300   -1.95500   -1.60200
      H    H176     0.99200   -3.12700   -3.44400
      H    H177     3.89600   -3.72800   -3.69200
      H    H178     2.68400   -3.48400   -4.93300
      H    H179     3.38100   -1.12300   -3.19700
      H    H180     4.57000   -1.62900   -4.38000
      H    H181     3.08000   -1.26200   -6.21700
      H    H182     1.66500   -1.24200   -5.18300
      H    H183     2.52400    0.88200   -4.11100
      H    H184     3.86900    0.87500   -5.23400
      H    H185     2.51600    1.96500   -6.57300
      H    H186     1.68600    0.57700   -6.80400
      H    H187     1.18800    1.64900   -5.67700
      N    N188     2.53100   -4.49700   -0.96700
      C    C189     2.61400   -5.68200   -0.13000
      C    C190     1.41700   -5.71400    0.82300
      O    O191     1.09900   -6.75800    1.39100
      C    C192     3.96700   -5.74200    0.58200
      C    C193     4.16800   -4.52000    1.48000
      C    C194     5.10800   -5.90700   -0.42400
      C    C195     3.36600   -4.65500    2.77600
      H    H196     2.93200   -3.67100   -0.57100
      H    H197     2.55600   -6.55100   -0.78700
      H    H198     3.97600   -6.62100    1.22600
      H    H199     5.22700   -4.40700    1.71400
      H    H200     3.86000   -3.61900    0.95000
      H    H201     5.03800   -5.13000   -1.18500
      H    H202     6.06500   -5.82300    0.09300
      H    H203     5.03600   -6.88700   -0.89700
      H    H204     2.32400   -4.86400    2.53700
      H    H205     3.77400   -5.47100    3.37300
      H    H206     3.43000   -3.72400    3.34100
      N    N207     0.78600   -4.55800    0.96800
      C    C208    -0.36900   -4.44100    1.84100
      C    C209    -1.63700   -4.76700    1.04900
      O    O210    -2.39500   -5.66100    1.42400
      C    C211    -0.39800   -3.06500    2.50900
      C    C212     0.59900   -2.85200    3.65000
      C    C213     0.44300   -1.45800    4.26100
      C    C214     0.47500   -3.95600    4.70200
      H    H215     1.05100   -3.71400    0.50200
      H    H216    -0.25700   -5.18100    2.63400
      H    H217    -0.21400   -2.30800    1.74600
      H    H218    -1.40200   -2.89100    2.89400
      H    H219     1.60800   -2.91100    3.23800
      H    H220     0.20700   -0.74100    3.47600
      H    H221    -0.36200   -1.47100    4.99600
      H    H222     1.37500   -1.16900    4.74800
      H    H223     0.94400   -3.63000    5.62900
      H    H224    -0.57900   -4.16800    4.88200
      H    H225     0.96900   -4.85800    4.34100
      N    N226    -1.83000   -4.02300   -0.03000
      C    C227    -2.99300   -4.22200   -0.87700
      C    C228    -3.29500   -5.71900   -0.97900
      O    O229    -4.43900   -6.11100   -1.20800
      C    C230    -2.76600   -3.56500   -2.24000
      C    C231    -3.53500   -4.30100   -3.33900
      C    C232    -3.14500   -2.08300   -2.20400
      H    H233    -1.21000   -3.29800   -0.32700
      H    H234    -3.83800   -3.72500   -0.39900
      H    H235    -1.70300   -3.63300   -2.47200
      H    H236    -4.60400   -4.12800   -3.21300
      H    H237    -3.22000   -3.93000   -4.31400
      H    H238    -3.33000   -5.36900   -3.27300
      H    H239    -3.46100   -1.76400   -3.19800
      H    H240    -3.96300   -1.93400   -1.49900
      H    H241    -2.28200   -1.49400   -1.89100
      N    N242    -2.25100   -6.51400   -0.80300
      C    C243    -2.39100   -7.95900   -0.87100
      C    C244    -3.25700   -8.46400    0.28400
      O    O245    -4.23100   -9.18300    0.06600
      C    C246    -1.02100   -8.64200   -0.86900
      C    C247     0.05500   -7.71600   -1.44000
      C    C248     1.11300   -8.51300   -2.20600
      O    O249     1.22100   -8.44600   -3.41900
      N    N250     1.88800   -9.26800   -1.43200
      H    H251    -1.32400   -6.18800   -0.61700
      H    H252    -2.88800   -8.15700   -1.82000
      H    H253    -0.75600   -8.93100    0.14800
      H    H254    -1.06700   -9.55800   -1.45900
      H    H255    -0.40500   -6.98400   -2.10400
      H    H256     0.52800   -7.16000   -0.63100
      H    H257     1.74700   -9.27700   -0.44200
      H    H258     2.61000   -9.82600   -1.84000
      N    N259    -2.87000   -8.06800    1.48800
      C    C260    -3.60000   -8.47100    2.67900
      C    C261    -4.95500   -7.76200    2.70600
      O    O262    -5.83100   -8.11900    3.49200
      C    C263    -2.75900   -8.16900    3.92000
      H    H264    -2.07700   -7.48300    1.65700
      H    H265    -3.76400   -9.54700    2.61800
      H    H266    -1.85100   -8.77300    3.89900
      H    H267    -2.49200   -7.11200    3.93000
      H    H268    -3.33200   -8.40700    4.81500
      N    N269    -5.08500   -6.76900    1.83800
      C    C270    -6.31900   -6.00600    1.75300
      C    C271    -7.25500   -6.67000    0.74100
      O    O272    -8.47300   -6.65600    0.91400
      C    C273    -6.05000   -4.57600    1.28100
      C    C274    -5.18700   -3.81800    2.29100
      O    O275    -5.67800   -3.15100    3.18700
      N    N276    -3.88000   -3.95700    2.09700
      H    H277    -4.36800   -6.48400    1.20200
      H    H278    -6.72800   -6.00900    2.76300
      H    H279    -5.55000   -4.59600    0.31300
      H    H280    -6.99600   -4.05200    1.13900
      H    H281    -3.54300   -4.51900    1.34200
      H    H282    -3.23200   -3.49800    2.70700
      N    N283    -6.65100   -7.23800   -0.29300
      C    C284    -7.41600   -7.90500   -1.33300
      C    C285    -7.64300   -6.96000   -2.51500
      O    O286    -8.02700   -7.39800   -3.59800
      C    C287    -8.74500   -8.42800   -0.78500
      C    C288    -9.90200   -7.51100   -1.18700
      C    C289   -11.21600   -7.98200   -0.56100
      O    O290   -11.44000   -9.21100   -0.56600
      O    O291   -11.96800   -7.10000   -0.09100
      H    H292    -5.66000   -7.24500   -0.42600
      H    H293    -6.80200   -8.75000   -1.64600
      H    H294    -8.92600   -9.43500   -1.16100
      H    H295    -8.69300   -8.49900    0.30200
      H    H296    -9.68900   -6.49100   -0.87100
      H    H297    -9.99700   -7.49500   -2.27200
      H    H298   -12.77500   -7.45900    0.28600
      N    N299    -7.39700   -5.68200   -2.26500
      C    C300    -7.57000   -4.67200   -3.29500
      C    C301    -8.08400   -3.38100   -2.65600
      O    O302    -8.19000   -2.35300   -3.32300
      C    C303    -8.51300   -5.20300   -4.37700
      H    H304    -7.08500   -5.33500   -1.38100
      H    H305    -6.59400   -4.48300   -3.74300
      H    H306    -9.32600   -5.75800   -3.91000
      H    H307    -8.92300   -4.36700   -4.94400
      H    H308    -7.96200   -5.86000   -5.04800
      N    N309    -8.38900   -3.47600   -1.37000
      C    C310    -8.89000   -2.32800   -0.63300
      C    C311    -7.77000   -1.31000   -0.41300
      O    O312    -7.57000   -0.41400   -1.23100
      C    C313    -9.50900   -2.75800    0.69800
      C    C314   -10.74300   -3.63500    0.47100
      C    C315   -11.80300   -3.37800    1.54400
      O    O316   -12.85000   -2.80100    1.18000
      O    O317   -11.54200   -3.76500    2.70300
      H    H318    -8.30000   -4.31600   -0.83500
      H    H319    -9.66500   -1.89400   -1.26400
      H    H320    -8.77300   -3.30700    1.28600
      H    H321    -9.78600   -1.87800    1.27600
      H    H322   -11.16200   -3.43100   -0.51600
      H    H323   -10.45500   -4.68500    0.48400
      H    H324   -12.24600   -3.57500    3.32800
      N    N325    -7.06800   -1.48100    0.69900
      C    C326    -5.97300   -0.58800    1.03700
      C    C327    -5.63200   -0.70300    2.52500
      O    O328    -4.45900   -0.75600    2.89300
      C    C329    -6.36800    0.82800    0.61200
      O    O330    -5.65200    1.67200    1.50900
      C    C331    -7.83800    1.13700    0.90200
      H    H332    -7.23600   -2.21200    1.35900
      H    H333    -5.08900   -0.90100    0.48100
      H    H334    -6.13400    0.99800   -0.43900
      H    H335    -4.68100    1.43500    1.50000
      H    H336    -8.37700    1.25300   -0.03900
      H    H337    -8.27600    0.31800    1.47200
      H    H338    -7.90900    2.05900    1.47700
      N    N339    -6.67700   -0.73800    3.33800
      C    C340    -6.50400   -0.84500    4.77600
      C    C341    -7.74800   -1.45900    5.41900
      O    O342    -7.66300   -2.49500    6.07900
      C    C343    -6.16400    0.54500    5.31600
      O    O344    -4.88400    0.83100    4.75900
      C    C345    -5.92100    0.54400    6.82700
      H    H346    -7.62700   -0.69400    3.02800
      H    H347    -5.67300   -1.52400    4.97200
      H    H348    -6.93500    1.26700    5.04700
      H    H349    -4.18700    0.25400    5.18600
      H    H350    -6.64200    1.20000    7.31200
      H    H351    -6.03500   -0.47000    7.21200
      H    H352    -4.91100    0.90000    7.03300
      N    N353    -8.87400   -0.79600    5.20500
      C    C354   -10.13500   -1.26400    5.75600
      C    C355   -11.18300   -1.40000    4.64900
      O    O356   -10.84800   -1.37200    3.46600
      C    C357   -10.54900   -0.30300    6.87100
      O    O358   -10.78100    0.93200    6.19800
      C    C359    -9.40200    0.00800    7.83400
      H    H360    -8.93400    0.04400    4.66700
      H    H361    -9.97900   -2.25900    6.17200
      H    H362   -11.41700   -0.68300    7.41000
      H    H363   -10.87700    1.67200    6.86200
      H    H364    -8.55200   -0.63600    7.60600
      H    H365    -9.10700    1.05100    7.72300
      H    H366    -9.72800   -0.17100    8.85800
      N    N367   -12.43000   -1.54400    5.07300
      C    C368   -13.52900   -1.68400    4.13400
      C    C369   -13.70500   -0.37400    3.36300
      O    O370   -14.10300    0.63900    3.93700
      C    C371   -14.79600   -2.09300    4.88600
      H    H372   -12.69300   -1.56600    6.03800
      H    H373   -13.26700   -2.47600    3.43200
      H    H374   -15.01700   -1.35200    5.65500
      H    H375   -15.63100   -2.15300    4.18800
      H    H376   -14.64400   -3.06600    5.35400
      N    N377   -13.40000   -0.43600    2.07500
      C    C378   -13.52100    0.73300    1.22000
      C    C379   -14.89300    0.74800    0.54500
      O    O380   -15.01500    1.15200   -0.61100
      C    C381   -12.41100    0.76300    0.16900
      O    O382   -12.01900    2.09400   -0.15600
      H    H383   -13.07700   -1.26300    1.61600
      H    H384   -13.41300    1.59000    1.88600
      H    H385   -11.54600    0.21100    0.53800
      H    H386   -12.75100    0.25500   -0.73300
      H    H387   -12.71300    2.74200    0.15700
