# CIF file generated by openbabel 2.3.2, see http://openbabel.sf.net
data_I
_chemical_name_common '../proteins/pdb/2HH7.pdb'
_cell_length_a 91.059
_cell_length_b 91.059
_cell_length_c 46.779
_cell_angle_alpha 90
_cell_angle_beta 90
_cell_angle_gamma 120
_space_group_name_H-M_alt 'P 64 2 2'
_space_group_name_Hall 'P 64 2c (0 0 -1)'
loop_
    _symmetry_equiv_pos_as_xyz
    'x,y,z'
    '-y,x-y,1/3+z'
    '-x+y,-x,2/3+z'
    '-x,-y,z'
    'y,-x+y,1/3+z'
    'x-y,x,2/3+z'
    'y,x,1/3-z'
    'x-y,-y,-z'
    '-x,-x+y,2/3-z'
    '-y,-x,1/3-z'
    '-x+y,y,-z'
    'x,x-y,2/3-z'
loop_
    _atom_site_type_symbol
    _atom_site_label
    _atom_site_Cartn_x
    _atom_site_Cartn_y
    _atom_site_Cartn_z
      N    N1    29.19200   -7.33400   -5.50300
      C    C2    29.58100   -7.69000   -4.13400
      C    C3    28.96400   -9.03100   -3.63100
      O    O4    27.84500   -9.40000   -4.02800
      C    C5    29.26200   -6.53700   -3.18000
      C    C6    30.39700   -6.22100   -2.24600
      C    C7    31.37000   -7.37600   -2.14500
      O    O8    32.16500   -7.57300   -3.10300
      O    O9    31.32800   -8.08600   -1.11100
      N    N10    29.67900   -9.73200   -2.74000
      C    C11    29.49000  -11.18800   -2.56500
      C    C12    28.61500  -11.68500   -1.42800
      O    O13    28.90300  -11.42700   -0.25800
      C    C14    30.82900  -11.89700   -2.42200
      C    C15    30.81900  -13.19500   -3.19900
      C    C16    30.90800  -12.81100   -4.68000
      C    C17    31.93400  -14.14400   -2.78400
      N    N18    27.59900  -12.47100   -1.79200
      C    C19    26.61300  -13.05000   -0.84700
      C    C20    27.12600  -13.95700    0.29300
      O    O21    28.16400  -14.61600    0.18500
      C    C22    25.47800  -13.81900   -1.62000
      O    O23    24.62500  -12.87800   -2.27900
      C    C24    24.61200  -14.68500   -0.68000
      N    N25    26.37800  -13.93200    1.39500
      C    C26    26.26600  -15.04500    2.34800
      C    C27    26.70000  -16.38300    1.74600
      O    O28    27.83600  -16.87100    1.96000
      C    C29    24.76700  -15.16000    2.83100
      N    N30    25.74700  -16.94100    0.99300
      C    C31    25.83600  -18.23600    0.34000
      C    C32    26.98000  -18.33600   -0.69400
      O    O33    27.73000  -19.31500   -0.69100
      C    C34    24.47800  -18.57500   -0.29100
      C    C35    23.28800  -18.35000    0.64300
      C    C36    21.98500  -18.99000    0.10300
      C    C37    20.75600  -18.50600    0.86400
      N    N38    20.76200  -18.70900    2.35300
      N    N39    27.12300  -17.34100   -1.57000
      C    C40    28.19800  -17.37100   -2.56800
      C    C41    29.61000  -17.35800   -1.98100
      O    O42    30.50700  -17.93100   -2.57100
      C    C43    28.02700  -16.26600   -3.58800
      C    C44    26.71900  -16.41500   -4.28200
      C    C45    26.68800  -15.62600   -5.53600
      C    C46    28.07600  -15.45100   -6.09000
      N    N47    27.88900  -14.90600   -7.46400
      N    N48    29.80000  -16.71000   -0.83100
      C    C49    31.04700  -16.80000   -0.09000
      C    C50    31.35500  -18.24700    0.33700
      O    O51    32.46200  -18.78800    0.11900
      C    C52    30.96500  -15.91500    1.15000
      C    C53    31.20700  -14.45000    0.86700
      C    C54    32.62800  -14.22800    0.35000
      N    N55    33.64900  -14.54800    1.34700
      C    C56    34.41300  -15.64100    1.32100
      N    N57    34.27200  -16.52900    0.33500
      N    N58    35.32300  -15.84700    2.27900
      N    N59    30.35200  -18.86700    0.94600
      C    C60    30.51100  -20.16200    1.57200
      C    C61    30.73300  -21.25700    0.52800
      O    O62    31.61900  -22.12000    0.68700
      C    C63    29.31500  -20.44600    2.39400
      N    N64    29.91000  -21.20000   -0.52200
      C    C65    30.08200  -21.98400   -1.73400
      C    C66    31.52400  -21.88500   -2.27800
      O    O67    32.13900  -22.88500   -2.65300
      C    C68    29.06600  -21.53100   -2.78700
      N    N69    32.03000  -20.66000   -2.31500
      C    C70    33.38300  -20.35100   -2.72000
      C    C71    34.40200  -21.00000   -1.79100
      O    O72    35.36600  -21.61000   -2.23200
      C    C73    33.58900  -18.83900   -2.66100
      C    C74    35.02900  -18.43500   -2.87600
      C    C75    35.37100  -18.69700   -4.32100
      C    C76    35.22100  -17.00100   -2.49700
      N    N77    34.21500  -20.84700   -0.49400
      C    C78    35.17600  -21.43400    0.40100
      C    C79    35.08000  -22.94700    0.31600
      O    O80    36.10400  -23.62300    0.24800
      C    C81    34.99200  -20.92700    1.82500
      C    C82    35.51300  -19.50400    2.01000
      O    O83    35.99400  -18.85900    1.06200
      N    N84    35.42500  -19.00800    3.24100
      N    N85    33.85100  -23.46400    0.28900
      C    C86    33.63300  -24.88400    0.09400
      C    C87    34.40500  -25.39500   -1.13200
      O    O88    35.15900  -26.36700   -1.03100
      C    C89    32.13400  -25.20200   -0.01000
      C    C90    31.79900  -26.69800   -0.18400
      C    C91    30.45600  -27.07100    0.49200
      N    N92    30.61700  -28.25800    1.33000
      C    C93    30.60600  -28.25500    2.66100
      N    N94    30.78900  -29.39400    3.32800
      N    N95    30.40100  -27.11700    3.32200
      N    N96    34.22400  -24.72400   -2.26600
      C    C97    34.95200  -25.02100   -3.49900
      C    C98    36.47500  -24.98700   -3.35300
      O    O99    37.17100  -25.81100   -3.97000
      C    C100    34.54900  -24.06300   -4.63100
      C    C101    33.42200  -24.46100   -5.61300
      C    C102    32.21200  -24.96700   -4.90900
      C    C103    33.00900  -23.29800   -6.52800
      N    N104    36.98700  -24.03300   -2.56600
      C    C105    38.43000  -23.90200   -2.36800
      C    C106    38.95200  -25.12200   -1.61500
      O    O107    39.93100  -25.76500   -2.03600
      C    C108    38.79200  -22.63300   -1.59400
      C    C109    38.79100  -21.33600   -2.39600
      C    C110    38.66400  -20.17100   -1.41800
      C    C111    38.65600  -18.81900   -2.10700
      N    N112    38.49500  -17.68100   -1.13500
      N    N113    38.29100  -25.41200   -0.49800
      C    C114    38.46000  -26.65900    0.24200
      C    C115    38.45600  -27.93000   -0.63800
      O    O116    39.21800  -28.85500   -0.39500
      C    C117    37.38100  -26.77500    1.34700
      O    O118    37.66500  -25.82400    2.38200
      C    C119    37.35000  -28.18800    1.94500
      N    N120    37.60800  -27.95900   -1.66000
      C    C121    37.47000  -29.14500   -2.48900
      C    C122    38.63600  -29.25800   -3.48100
      O    O123    39.04500  -30.36700   -3.88400
      C    C124    36.10600  -29.17000   -3.25800
      C    C125    36.11300  -30.24100   -4.36100
      C    C126    34.91200  -29.37400   -2.30300
      N    N127    39.16900  -28.11200   -3.89100
      C    C128    40.30400  -28.14200   -4.80100
      C    C129    41.54200  -28.73500   -4.12500
      O    O130    42.36300  -29.34700   -4.77200
      C    C131    40.60600  -26.75900   -5.34800
      C    C132    41.76800  -26.74200   -6.34300
      C    C133    42.07700  -25.31700   -6.66700
      N    N134    42.01000  -24.50200   -5.43900
      C    C135    41.84300  -23.17200   -5.38200
      N    N136    41.81200  -22.57500   -4.18500
      N    N137    41.70600  -22.44500   -6.50100
      N    N138    41.64400  -28.57100   -2.81300
      C    C139    42.74600  -29.11800   -2.05700
      C    C140    42.53100  -30.60000   -1.87800
      O    O141    43.46800  -31.39000   -2.05100
      N    N142    41.29200  -30.96300   -1.53300
      C    C143    40.87000  -32.35500   -1.46600
      C    C144    41.25300  -33.10000   -2.76400
      O    O145    41.79000  -34.19900   -2.73000
      C    C146    39.35600  -32.41900   -1.20200
      C    C147    38.89700  -33.72500   -0.62900
      N    N148    37.66900  -33.87400   -0.00500
      C    C149    39.50600  -34.93500   -0.55300
      C    C150    37.53700  -35.12500    0.40400
      N    N151    38.64000  -35.78800    0.09200
      N    N152    40.97400  -32.47200   -3.90000
      C    C153    41.33700  -32.96700   -5.23200
      C    C154    42.84600  -33.19600   -5.46600
      O    O155    43.26700  -34.12500   -6.16600
      C    C156    40.83900  -31.95700   -6.26600
      C    C157    39.73300  -32.47900   -7.12900
      C    C158    40.35700  -33.34800   -8.19000
      C    C159    38.85700  -33.27100   -6.20900
      N    N160    43.64400  -32.28600   -4.92100
      C    C161    45.10100  -32.34300   -4.98300
      C    C162    45.65100  -33.60700   -4.36200
      O    O163    46.57300  -34.23200   -4.89300
      C    C164    45.67400  -31.15000   -4.22100
      C    C165    46.03000  -30.02000   -5.12300
      O    O166    45.53900  -28.88800   -4.88400
      O    O167    46.79900  -30.28200   -6.08000
      N    N168    45.07900  -33.91700   -3.19900
      C    C169    45.38100  -35.08400   -2.40200
      C    C170    45.10200  -36.33700   -3.18100
      O    O171    45.90600  -37.26800   -3.15800
      N    N172    43.98000  -36.34500   -3.89500
      C    C173    43.58100  -37.51500   -4.64500
      C    C174    44.51000  -37.69200   -5.82600
      O    O175    44.95100  -38.80600   -6.10200
      C    C176    42.10000  -37.43700   -5.12100
      C    C177    41.14600  -37.23600   -3.93300
      C    C178    41.74600  -38.67900   -5.89600
      C    C179    39.82500  -36.57300   -4.34700
      N    N180    44.78100  -36.59700   -6.53900
      C    C181    45.73000  -36.59600   -7.66900
      C    C182    47.07000  -37.16700   -7.22400
      O    O183    47.67200  -37.97900   -7.89500
      C    C184    45.95800  -35.17000   -8.24500
      C    C185    47.22000  -35.13800   -9.12100
      C    C186    44.74900  -34.73200   -9.03000
      N    N187    47.48300  -36.75400   -6.04100
      C    C188    48.70900  -37.17000   -5.42400
      C    C189    48.75700  -38.69100   -5.12500
      O    O190    49.67200  -39.42300   -5.52800
      C    C191    48.86600  -36.32100   -4.15500
      C    C192    50.26400  -36.06500   -3.73800
      C    C193    50.53600  -34.62900   -3.39300
      N    N194    49.53100  -34.03200   -2.54200
      C    C195    49.40100  -32.71500   -2.40500
      N    N196    50.22600  -31.89300   -3.07100
      N    N197    48.45200  -32.22200   -1.60700
      N    N198    47.77800  -39.17800   -4.40000
      C    C199    47.77500  -40.59100   -4.10400
      C    C200    47.66500  -41.47300   -5.36000
      O    O201    48.25200  -42.54500   -5.42800
      C    C202    46.66700  -40.89400   -3.11500
      C    C203    45.25700  -40.71300   -3.65500
      S    S204    44.26600  -40.62600   -2.16800
      C    C205    44.19800  -42.38500   -1.73100
      N    N206    46.92600  -41.01000   -6.35600
      C    C207    46.78300  -41.77200   -7.58900
      C    C208    48.15000  -41.83500   -8.25800
      O    O209    48.54700  -42.85100   -8.81900
      C    C210    45.74100  -41.11200   -8.51000
      C    C211    44.68500  -41.95200   -9.22700
      C    C212    44.14000  -43.08200   -8.31400
      C    C213    43.58300  -41.01200   -9.70800
      N    N214    48.88100  -40.74000   -8.17800
      C    C215    50.22700  -40.67700   -8.73700
      C    C216    51.19600  -41.69100   -8.07800
      O    O217    52.09100  -42.21000   -8.74100
      C    C218    50.75200  -39.24000   -8.63300
      C    C219    51.35500  -38.70800   -9.91300
      C    C220    51.15200  -37.20400  -10.07900
      O    O221    50.63700  -36.55300   -9.13000
      O    O222    51.50700  -36.68100  -11.16600
      N    N223    50.98800  -41.96200   -6.78800
      C    C224    51.75400  -42.93500   -6.02800
      C    C225    51.18700  -44.34100   -6.11600
      O    O226    51.48700  -45.17200   -5.25100
      C    C227    51.77800  -42.52400   -4.56200
      O    O228    52.26900  -41.21100   -4.44200
      N    N229    50.37100  -44.58200   -7.15300
      C    C230    49.63500  -45.84100   -7.37400
      C    C231    48.89500  -46.34900   -6.11500
      O    O232    48.94800  -47.54300   -5.76600
      C    C233    50.56300  -46.90600   -7.99000
      C    C234    49.83500  -48.19600   -8.39900
      O    O235    50.25500  -49.26900   -7.91500
      O    O236    48.88500  -48.16400   -9.21800
      N    N237    48.19800  -45.42400   -5.45000
      C    C238    47.36600  -45.72200   -4.26200
      C    C239    46.29600  -46.80300   -4.42700
      O    O240    45.77800  -47.04800   -5.52000
      C    C241    46.71400  -44.47100   -3.72700
      N    N242    45.97000  -47.42900   -3.30600
      C    C243    44.88100  -48.39000   -3.22800
      C    C244    43.52300  -47.88400   -3.78100
      O    O245    42.94400  -46.87600   -3.30000
      C    C246    44.72000  -48.87300   -1.79600
      C    C247    43.75600  -50.00000   -1.72800
      C    C248    42.76600  -50.03300   -0.76100
      C    C249    43.81900  -51.03100   -2.66700
      C    C250    41.88400  -51.06600   -0.70500
      C    C251    42.93200  -52.07200   -2.63200
      C    C252    41.96100  -52.09200   -1.64300
      O    O253    41.06400  -53.13900   -1.58800
      N    N254    43.05500  -48.60600   -4.79900
      C    C255    41.86000  -48.27600   -5.54800
      C    C256    40.70300  -47.82100   -4.64500
      O    O257    40.08100  -46.79500   -4.87800
      C    C258    41.43100  -49.49100   -6.39200
      S    S259    42.49900  -49.99600   -7.85400
      N    N260    40.42000  -48.56800   -3.60100
      C    C261    39.20100  -48.30600   -2.86600
      C    C262    39.30700  -46.98600   -2.13300
      O    O263    38.37400  -46.20100   -2.10100
      C    C264    38.93200  -49.44900   -1.88300
      C    C265    37.93900  -49.05900   -0.88200
      C    C266    38.49300  -50.68700   -2.64100
      N    N267    40.46400  -46.74900   -1.53800
      C    C268    40.74700  -45.50500   -0.83100
      C    C269    40.54100  -44.21700   -1.66700
      O    O270    39.85200  -43.26900   -1.21200
      C    C271    42.18000  -45.56500   -0.34700
      C    C272    42.45400  -46.77200    0.55200
      O    O273    41.53400  -47.26700    1.25900
      O    O274    43.63000  -47.19900    0.55300
      N    N275    41.17900  -44.20200   -2.84900
      C    C276    40.96200  -43.23900   -3.93700
      C    C277    39.46000  -43.07800   -4.30200
      O    O278    38.93800  -41.96700   -4.37700
      C    C279    41.69700  -43.65800   -5.24200
      C    C280    41.33700  -42.69800   -6.35600
      C    C281    43.22200  -43.74000   -5.06100
      N    N282    38.78300  -44.20100   -4.54300
      C    C283    37.36300  -44.18800   -4.78900
      C    C284    36.59300  -43.47600   -3.68400
      O    O285    35.73000  -42.66900   -3.97900
      C    C286    36.85100  -45.58600   -4.98200
      C    C287    37.22500  -46.13200   -6.35600
      S    S288    36.62600  -47.83900   -6.53500
      C    C289    35.02200  -47.66700   -5.75400
      N    N290    36.91800  -43.75000   -2.42200
      C    C291    36.25500  -43.07300   -1.30300
      C    C292    36.62600  -41.58300   -1.15700
      O    O293    35.85600  -40.81200   -0.58800
      C    C294    36.54700  -43.77200    0.02700
      C    C295    36.70300  -45.25400   -0.11100
      C    C296    37.22800  -45.85900    1.15900
      C    C297    36.54400  -45.23500    2.36600
      N    N298    36.99300  -45.83800    3.66500
      N    N299    37.80400  -41.16800   -1.61900
      C    C300    38.12500  -39.73900   -1.54900
      C    C301    37.27000  -39.02800   -2.56800
      O    O302    36.75100  -37.94700   -2.33300
      C    C303    39.61200  -39.44700   -1.83700
      C    C304    40.59800  -39.91100   -0.76300
      C    C305    40.00500  -39.88500    0.64100
      O    O306    40.11900  -40.86400    1.40400
      N    N307    39.34500  -38.77900    0.98200
      N    N308    37.14300  -39.67800   -3.71300
      C    C309    36.48400  -39.12000   -4.86000
      C    C310    35.01300  -38.88600   -4.53600
      O    O311    34.42700  -37.84000   -4.83200
      C    C312    36.68900  -40.03700   -6.05600
      C    C313    38.11000  -39.84900   -6.62900
      C    C314    35.67200  -39.72700   -7.09700
      C    C315    38.37700  -40.77100   -7.76700
      N    N316    34.44600  -39.85700   -3.85600
      C    C317    33.13600  -39.73700   -3.30600
      C    C318    32.99200  -38.66200   -2.23400
      O    O319    31.96400  -38.00600   -2.15800
      C    C320    32.73100  -41.09600   -2.76100
      O    O321    32.51000  -41.91300   -3.89200
      N    N322    33.98300  -38.51600   -1.37200
      C    C323    33.96200  -37.42400   -0.41800
      C    C324    33.88200  -36.06000   -1.16400
      O    O325    33.07700  -35.20200   -0.81800
      C    C326    35.18600  -37.49300    0.51400
      N    N327    34.69900  -35.88400   -2.19900
      C    C328    34.70800  -34.66000   -2.98500
      C    C329    33.32500  -34.37800   -3.60000
      O    O330    32.81200  -33.26800   -3.48600
      C    C331    35.77500  -34.72200   -4.10800
      C    C332    35.39000  -33.80800   -5.24100
      C    C333    37.15000  -34.39600   -3.56800
      N    N334    32.73100  -35.38600   -4.24400
      C    C335    31.40800  -35.25000   -4.85600
      C    C336    30.32700  -34.82200   -3.85300
      O    O337    29.42100  -34.03900   -4.17700
      C    C338    30.95300  -36.56000   -5.52000
      C    C339    32.06800  -37.33200   -6.19900
      C    C340    31.55200  -38.35200   -7.18400
      O    O341    30.81200  -37.98400   -8.09700
      N    N342    31.94600  -39.64100   -7.02100
      N    N343    30.39500  -35.34400   -2.63900
      C    C344    29.39800  -34.96000   -1.65200
      C    C345    29.48100  -33.45700   -1.27000
      O    O346    28.43900  -32.76700   -1.12400
      C    C347    29.42700  -35.89900   -0.43000
      O    O348    30.74900  -36.10500    0.03200
      N    N349    30.71500  -32.96100   -1.13300
      C    C350    30.96700  -31.55300   -0.85200
      C    C351    30.48600  -30.66900   -2.03800
      O    O352    29.89700  -29.58800   -1.84900
      C    C353    32.44500  -31.35500   -0.57200
      O    O354    32.65300  -30.18500    0.20400
      N    N355    30.71200  -31.15800   -3.25800
      C    C356    30.18700  -30.52000   -4.45800
      C    C357    28.65600  -30.40900   -4.41400
      O    O358    28.07600  -29.39000   -4.81400
      C    C359    30.65100  -31.24600   -5.74600
      C    C360    32.15200  -31.24900   -6.13000
      C    C361    32.40200  -31.43200   -7.63400
      C    C362    32.89500  -29.98900   -5.60000
      N    N363    28.00300  -31.45600   -3.91700
      C    C364    26.55500  -31.45200   -3.87700
      C    C365    26.06700  -30.40000   -2.90900
      O    O366    25.10600  -29.71400   -3.19800
      C    C367    25.98400  -32.82900   -3.52700
      C    C368    24.56300  -33.02200   -4.02800
      C    C369    24.38600  -32.62700   -5.51000
      O    O370    25.27900  -31.91900   -6.05800
      O    O371    23.34900  -33.02100   -6.12100
      N    N372    26.75200  -30.27800   -1.77200
      C    C373    26.38800  -29.30800   -0.75400
      C    C374    26.56400  -27.87100   -1.25700
      O    O375    25.68500  -27.01500   -1.05900
      C    C376    27.16600  -29.52400    0.54800
      C    C377    27.13900  -28.27200    1.42900
      C    C378    26.85000  -28.55800    2.91200
      N    N379    25.90600  -27.60100    3.52600
      C    C380    26.15900  -26.31800    3.82300
      N    N381    27.33900  -25.74900    3.55400
      N    N382    25.20600  -25.58700    4.38800
      N    N383    27.69500  -27.62600   -1.91800
      C    C384    27.99100  -26.32500   -2.48300
      C    C385    26.95800  -25.94600   -3.55800
      O    O386    26.55800  -24.77300   -3.68400
      C    C387    29.40600  -26.32500   -3.06900
      N    N388    26.54000  -26.93100   -4.34500
      C    C389    25.62800  -26.63000   -5.43100
      C    C390    24.27600  -26.24100   -4.89900
      O    O391    23.50100  -25.57400   -5.57400
      C    C392    25.41600  -27.81900   -6.34400
      C    C393    25.49200  -27.43600   -7.79400
      O    O394    25.81000  -26.28300   -8.13100
      N    N395    25.22900  -28.39300   -8.67300
      N    N396    23.97400  -26.68000   -3.69100
      C    C397    22.63100  -26.50100   -3.22200
      C    C398    22.51600  -25.16700   -2.47000
      O    O399    21.46000  -24.50700   -2.50300
      C    C400    22.17100  -27.72700   -2.42500
      C    C401    22.27500  -27.60700   -0.94500
      C    C402    21.30600  -28.56100   -0.26200
      N    N403    22.03900  -29.34700    0.72700
      C    C404    22.55600  -30.55600    0.50300
      N    N405    22.39600  -31.16500   -0.67300
      N    N406    23.22700  -31.16800    1.47100
      N    N407    23.61300  -24.77300   -1.82400
      C    C408    23.77300  -23.40100   -1.38000
      C    C409    23.63600  -22.41900   -2.57000
      O    O410    22.94300  -21.40200   -2.45800
      C    C411    25.10000  -23.21800   -0.69400
      C    C412    25.24600  -21.78700   -0.27100
      C    C413    25.17500  -24.14300    0.49700
      N    N414    24.26300  -22.75700   -3.70300
      C    C415    24.13100  -21.98400   -4.94100
      C    C416    22.66400  -21.77200   -5.31300
      O    O417    22.17200  -20.65300   -5.32100
      C    C418    24.92200  -22.60700   -6.12500
      C    C419    26.43200  -22.31400   -6.12200
      S    S420    26.92500  -20.67400   -5.46700
      C    C421    26.63000  -19.62900   -6.93500
      N    N422    22.00000  -22.86800   -5.63300
      C    C423    20.57600  -22.91900   -5.84200
      C    C424    19.83200  -22.04800   -4.85600
      O    O425    18.92000  -21.25900   -5.23800
      C    C426    20.10500  -24.33800   -5.60800
      C    C427    18.71800  -24.68900   -6.14000
      C    C428    18.12500  -23.62600   -7.08100
      C    C429    18.86500  -26.01900   -6.87200
      N    N430    20.20000  -22.21400   -3.58700
      C    C431    19.47200  -21.52300   -2.56200
      C    C432    19.68000  -20.02000   -2.68800
      O    O433    18.69800  -19.25900   -2.80900
      C    C434    19.78600  -22.05400   -1.18300
      C    C435    19.00400  -21.37400   -0.11100
      N    N436    19.15000  -21.67700    1.22700
      C    C437    18.09100  -20.38400   -0.17700
      C    C438    18.34200  -20.91200    1.93600
      N    N439    17.69200  -20.11200    1.11100
      N    N440    20.94400  -19.59900   -2.71000
      C    C441    21.25500  -18.23800   -3.13400
      C    C442    20.49700  -17.74900   -4.38400
      O    O443    19.82000  -16.73800   -4.34300
      C    C444    22.73000  -18.02700   -3.40600
      C    C445    23.01100  -16.58500   -3.77500
      O    O446    22.93500  -15.71900   -2.91200
      N    N447    23.25200  -16.30700   -5.06000
      N    N448    20.66700  -18.43700   -5.50100
      C    C449    19.92900  -18.12900   -6.71200
      C    C450    18.42400  -17.91800   -6.50100
      O    O451    17.86100  -16.91900   -6.95700
      C    C452    20.09900  -19.24600   -7.72800
      C    C453    19.43900  -18.97500   -9.04900
      N    N454    19.78300  -17.90700   -9.85100
      C    C455    18.50900  -19.67300   -9.74200
      C    C456    19.07600  -17.94000  -10.96800
      N    N457    18.30000  -19.00700  -10.93000
      N    N458    17.75200  -18.85500   -5.84600
      C    C459    16.31400  -18.67300   -5.65200
      C    C460    15.91400  -17.34800   -4.97200
      O    O461    15.08700  -16.62600   -5.52200
      C    C462    15.69600  -19.85000   -4.93900
      C    C463    15.79100  -21.09000   -5.82100
      C    C464    15.59500  -22.32700   -4.92200
      C    C465    14.83300  -21.04200   -7.04100
      N    N466    16.48500  -17.01800   -3.80700
      C    C467    16.14300  -15.74700   -3.15300
      C    C468    16.65400  -14.50500   -3.90600
      O    O469    16.15800  -13.37900   -3.72300
      C    C470    16.69800  -15.69200   -1.74700
      C    C471    17.17000  -16.98100   -1.19800
      C    C472    18.37100  -16.73700   -0.32800
      O    O473    18.29300  -16.92700    0.90800
      O    O474    19.39600  -16.30100   -0.89600
      N    N475    17.63700  -14.74200   -4.76100
      C    C476    18.43600  -13.71400   -5.40600
      C    C477    17.87500  -13.51200   -6.79600
      O    O478    16.72800  -13.08900   -6.92700
      C    C479    19.94700  -14.13000   -5.31100
      O    O480    20.48700  -13.55000   -4.11700
      C    C481    20.81600  -13.78000   -6.52800
      N    N482    18.63800  -13.87700   -7.81800
      C    C483    18.28100  -13.61100   -9.21000
      C    C484    16.93800  -14.19600   -9.59700
      O    O485    16.24300  -13.63300  -10.47300
      C    C486    19.33700  -14.19100  -10.17800
      S    S487    21.05800  -13.65500   -9.94700
      N    N488    16.61100  -15.34800   -8.98300
      C    C489    15.41900  -16.12500   -9.36000
      C    C490    14.14300  -15.35800   -9.00100
      O    O491    13.26300  -15.18800   -9.86000
      C    C492    15.36700  -17.59600   -8.80100
      C    C493    14.20400  -18.42200   -9.38800
      C    C494    14.25500  -18.89100  -10.70200
      C    C495    13.02900  -18.63600   -8.66500
      C    C496    13.18700  -19.60200  -11.26600
      C    C497    11.96100  -19.34600   -9.22300
      C    C498    12.04600  -19.82800  -10.52700
      N    N499    14.06900  -14.92600   -7.73900
      C    C500    12.92500  -14.21700   -7.18800
      C    C501    12.64200  -12.95200   -8.00100
      O    O502    11.59000  -12.83700   -8.65400
      C    C503    13.21400  -13.84500   -5.73500
      O    O504    12.71100  -14.83700   -4.87700
      N    N505    13.60400  -12.02400   -7.96000
      C    C506    13.57700  -10.78200   -8.73500
      C    C507    13.51400  -10.97700  -10.28100
      O    O508    13.78600  -10.04300  -11.05800
      C    C509    14.74500   -9.81200   -8.29900
      O    O510    15.80300   -9.80700   -9.27300
      C    C511    15.28200  -10.18300   -6.90800
      N    N512    13.19600  -12.19700  -10.71400
      C    C513    12.46400  -12.37400  -11.95200
      C    C514    10.99900  -12.44400  -11.45700
      O    O515    10.27300  -13.42900  -11.64800
      C    C516    12.93300  -13.60900  -12.73800
      N    N517    10.65500  -11.37000  -10.72700
      C    C518     9.31100  -10.93500  -10.31800
      C    C519     8.81600  -10.04000  -11.45200
      O    O520     7.83300  -10.31300  -12.13100
      C    C521     9.37700   -9.98500   -9.05200
      C    C522     8.35700   -8.89900   -9.13600
      C    C523     9.22400  -10.70400   -7.74000
      N    N524     9.53200   -8.94400  -11.64200
      C    C525     9.20900   -7.97300  -12.66200
      C    C526     9.54000   -8.58100  -14.02100
      O    O527    10.43900   -9.39900  -14.11100
      C    C528    10.01500   -6.68900  -12.40000
      C    C529    11.40500   -6.80600  -11.73800
      C    C530    11.34800   -6.96800  -10.22100
      C    C531    12.24500   -7.91300  -12.36200
      N    N532     8.78100   -8.21400  -15.05200
      C    C533     9.10000   -8.49900  -16.47600
      C    C534     9.02100   -9.95400  -17.01800
      O    O535     8.15400  -10.72500  -16.61200
      C    C536    10.37900   -7.75400  -16.94500
      C    C537    11.68700   -8.53000  -16.68400
      O    O538    12.14800   -8.56500  -15.51700
      O    O539    12.28500   -9.05500  -17.66400
      N    N540     9.89800  -10.29400  -17.96900
      C    C541     9.87200  -11.58300  -18.65600
      C    C542    10.26400  -12.79000  -17.81500
      O    O543    10.06200  -13.94300  -18.22900
      N    N544    10.84100  -12.49600  -16.64900
      C    C545    11.16000  -13.45400  -15.58700
      C    C546    10.58400  -14.85400  -15.76800
      O    O547    11.03100  -15.61600  -16.64200
      C    C548    10.67900  -12.89100  -14.25100
      C    C549     9.21900  -12.53300  -14.21500
      N    N550     8.76200  -11.23700  -14.38600
      C    C551     8.11500  -13.29100  -14.00800
      C    C552     7.44000  -11.22200  -14.30500
      N    N553     7.02600  -12.45600  -14.07400
      N    N554     9.61000  -15.17200  -14.91000
      C    C555     8.80900  -16.37600  -14.99200
      C    C556     9.42100  -17.48500  -15.82400
      O    O557    10.45500  -18.05900  -15.45800
      N    N558     8.79300  -17.75300  -16.96800
      C    C559     9.05500  -18.95500  -17.76600
      C    C560    10.53100  -19.16800  -18.11200
      O    O561    11.05500  -20.29300  -18.02400
      C    C562     8.18700  -18.94700  -19.04000
      C    C563     7.68200  -20.33700  -19.48100
      C    C564     7.20100  -21.20400  -18.30600
      O    O565     6.34700  -20.78900  -17.50600
      N    N566     7.75700  -22.41400  -18.20200
      N    N567    11.19000  -18.07500  -18.49200
      C    C568    12.58500  -18.10700  -18.90100
      C    C569    13.55100  -18.48400  -17.76200
      O    O570    14.45400  -19.30600  -17.96400
      C    C571    12.96500  -16.77300  -19.51600
      N    N572    13.36600  -17.87100  -16.58700
      C    C573    14.20000  -18.13700  -15.40800
      C    C574    14.07400  -19.59600  -14.96200
      O    O575    15.06900  -20.27100  -14.66900
      C    C576    13.80700  -17.21300  -14.26600
      N    N577    12.82100  -20.04100  -14.89400
      C    C578    12.44100  -21.41300  -14.62200
      C    C579    13.03200  -22.33300  -15.66700
      O    O580    13.72100  -23.29400  -15.33700
      C    C581    10.89400  -21.56300  -14.67800
      C    C582    10.24700  -21.04200  -13.40000
      C    C583    10.46500  -23.01000  -14.89600
      C    C584     8.78300  -20.67000  -13.60000
      N    N585    12.75900  -22.03900  -16.93200
      C    C586    13.06800  -22.98400  -18.00300
      C    C587    14.55200  -23.32300  -18.00900
      O    O588    14.93800  -24.47200  -18.22100
      C    C589    12.62000  -22.42500  -19.36400
      C    C590    12.01200  -23.46700  -20.34100
      C    C591    10.47200  -23.46600  -20.38000
      O    O592     9.88600  -24.32300  -21.08600
      O    O593     9.84800  -22.60900  -19.71500
      N    N594    15.37600  -22.31400  -17.73700
      C    C595    16.83600  -22.44800  -17.75000
      C    C596    17.38800  -22.90800  -16.40500
      O    O597    18.46300  -23.49200  -16.31700
      C    C598    17.48600  -21.11200  -18.10600
      C    C599    17.21200  -20.02800  -17.06700
      C    C600    18.45400  -19.23600  -16.71400
      O    O601    18.56200  -18.82100  -15.54000
      O    O602    19.32000  -19.04800  -17.60300
      N    N603    16.65600  -22.59700  -15.35100
      C    C604    16.92000  -23.17200  -14.05300
      C    C605    16.85700  -24.69900  -14.19000
      O    O606    17.64400  -25.41500  -13.56400
      C    C607    15.90800  -22.63100  -13.03200
      C    C608    16.01000  -22.96900  -11.53600
      C    C609    17.22400  -23.83600  -11.22800
      C    C610    15.99200  -21.73700  -10.60900
      N    N611    15.96300  -25.19200  -15.04900
      C    C612    15.72900  -26.63400  -15.16300
      C    C613    16.93200  -27.41700  -15.72900
      O    O614    17.19100  -28.55400  -15.31700
      C    C615    14.37300  -26.96500  -15.90200
      C    C616    13.14400  -26.52300  -15.06900
      C    C617    14.27600  -28.46200  -16.25200
      C    C618    12.68600  -27.51200  -13.90900
      N    N619    17.68700  -26.80800  -16.64200
      C    C620    18.89100  -27.46200  -17.16900
      C    C621    19.98000  -27.62600  -16.12100
      O    O622    20.77200  -28.55800  -16.18200
      C    C623    19.47200  -26.68800  -18.34300
      C    C624    18.73000  -26.94100  -19.62500
      O    O625    17.49000  -26.76200  -19.62200
      O    O626    19.38800  -27.30800  -20.62900
      N    N627    20.02700  -26.70200  -15.17000
      C    C628    21.07100  -26.69600  -14.14900
      C    C629    20.78500  -27.67600  -13.00900
      O    O630    21.56500  -27.77400  -12.05300
      C    C631    21.25700  -25.29100  -13.60200
      N    N632    19.65400  -28.37600  -13.09400
      C    C633    19.35700  -29.42800  -12.13100
      C    C634    19.88500  -30.74700  -12.70300
      O    O635    20.53200  -31.53200  -11.98600
      C    C636    17.85400  -29.51200  -11.77800
      C    C637    17.02700  -29.86900  -12.99900
      C    C638    17.62500  -30.52000  -10.63300
      N    N639    19.60900  -30.97100  -13.99400
      C    C640    20.33600  -31.95900  -14.79400
      C    C641    20.23600  -31.65700  -16.29800
      O    O642    19.13200  -31.62800  -16.86700
      C    C643    19.90000  -33.40800  -14.48500
      C    C644    20.40300  -34.01900  -13.13500
      C    C645    21.92500  -34.02100  -12.95800
      C    C646    22.60800  -34.92600  -13.97500
      N    N647    22.88800  -34.24100  -15.27400
      N    N648    21.40300  -31.38200  -16.90000
      C    C649    21.60000  -31.33800  -18.36100
      C    C650    22.95100  -31.95500  -18.74900
      O    O651    23.72900  -32.37900  -17.89100
      C    C652    21.34300  -29.92000  -18.98400
      C    C653    22.60500  -29.11900  -19.42300
      C    C654    22.60500  -27.72300  -19.33400
      C    C655    23.73900  -29.72500  -19.97100
      C    C656    23.71100  -26.96100  -19.74600
      C    C657    24.85400  -28.96200  -20.37700
      C    C658    24.83300  -27.58000  -20.26100
