# CIF file generated by openbabel 2.3.2, see http://openbabel.sf.net
data_I
_chemical_name_common '../proteins/pdb/2LX5.pdb'
_cell_length_a 1
_cell_length_b 1
_cell_length_c 1
_cell_angle_alpha 90
_cell_angle_beta 90
_cell_angle_gamma 90
_space_group_name_H-M_alt 'P 1'
_space_group_name_Hall 'P 1'
loop_
    _symmetry_equiv_pos_as_xyz
    'x,y,z'
loop_
    _atom_site_type_symbol
    _atom_site_label
    _atom_site_Cartn_x
    _atom_site_Cartn_y
    _atom_site_Cartn_z
      N    N1     0.97600    0.14700    0.18100
      C    C2     1.68600   -0.08700   -1.07100
      C    C3     3.16300   -0.36900   -0.81400
      O    O4     3.70700   -0.04700    0.24300
      C    C5     1.53800    1.11900   -2.00000
      C    C6     0.62400    0.83500   -3.17600
      O    O7    -0.33300    0.05000   -3.00800
      O    O8     0.86500    1.39900   -4.26300
      H    H9     1.48600    0.39800    0.98000
      H    H10     1.24600   -0.95100   -1.54500
      H    H11     1.12800    1.94700   -1.44100
      H    H12     2.51100    1.39300   -2.38100
      N    N13     3.82900   -0.98500   -1.80100
      C    C14     5.25200   -1.32400   -1.70500
      C    C15     6.14600   -0.08900   -1.74000
      O    O16     7.28500   -0.12300   -1.27500
      C    C17     5.49400   -2.19500   -2.94100
      C    C18     4.44600   -1.77300   -3.91200
      C    C19     3.24500   -1.39800   -3.08800
      H    H20     5.46500   -1.89600   -0.81300
      H    H21     6.48700   -2.01100   -3.32500
      H    H22     5.39100   -3.23700   -2.67700
      H    H23     4.79200   -0.92300   -4.47900
      H    H24     4.20600   -2.59400   -4.57200
      H    H25     2.71100   -0.58100   -3.55000
      H    H26     2.59400   -2.25100   -2.96000
      N    N27     5.62200    0.99900   -2.29500
      C    C28     6.37400    2.24400   -2.39100
      C    C29     6.14600    3.11400   -1.15800
      O    O30     6.75200    4.17600   -1.01500
      C    C31     5.97000    3.01200   -3.65100
      C    C32     6.21100    2.24000   -4.93800
      C    C33     6.81300    3.12700   -6.01600
      N    N34     5.78800    3.76300   -6.83800
      C    C35     6.05900    4.59300   -7.83900
      N    N36     7.31600    4.88500   -8.14100
      N    N37     5.07000    5.13300   -8.54100
      H    H38     4.70900    0.96300   -2.64800
      H    H39     7.42300    1.99500   -2.45200
      H    H40     4.91900    3.25100   -3.59200
      H    H41     6.53800    3.92900   -3.69600
      H    H42     6.89000    1.42500   -4.73600
      H    H43     5.26900    1.84700   -5.29200
      H    H44     7.40800    3.89400   -5.54200
      H    H45     7.44500    2.52200   -6.64900
      H    H46     4.85100    3.56100   -6.63300
      H    H47     8.06300    4.48000   -7.61400
      H    H48     7.51700    5.51000   -8.89600
      H    H49     4.12100    4.91400   -8.31700
      H    H50     5.27500    5.75700   -9.29400
      N    N51     5.26700    2.65600   -0.27200
      C    C52     4.96000    3.39200    0.94800
      C    C53     5.71600    2.81800    2.14100
      O    O54     5.98200    3.51900    3.11700
      C    C55     3.45100    3.37100    1.25300
      C    C56     2.67500    4.08900    0.14700
      C    C57     3.17400    4.01300    2.60400
      C    C58     1.17300    4.01400    0.31500
      H    H59     4.81600    1.80300   -0.44300
      H    H60     5.26400    4.41900    0.80300
      H    H61     3.12900    2.34200    1.29800
      H    H62     2.95500    5.13000    0.13600
      H    H63     2.92500    3.64300   -0.80500
      H    H64     3.64100    4.98700    2.64200
      H    H65     2.10800    4.12100    2.74000
      H    H66     3.57600    3.39100    3.38800
      H    H67     0.70000    4.05000   -0.65600
      H    H68     0.91100    3.09000    0.80800
      H    H69     0.83600    4.84900    0.91100
      N    N70     6.06100    1.53700    2.05600
      C    C71     6.79000    0.86900    3.12700
      C    C72     8.28900    1.13000    3.01600
      O    O73     8.99700    1.17200    4.02200
      C    C74     6.51000   -0.62600    3.10300
      H    H75     5.82100    1.03000    1.25300
      H    H76     6.43500    1.26200    4.06800
      H    H77     6.63200   -1.03000    4.09800
      H    H78     5.49900   -0.79800    2.76600
      H    H79     7.20200   -1.11100    2.43000
      N    N80     8.76600    1.30500    1.78800
      C    C81    10.18000    1.56400    1.54700
      C    C82    10.64600    2.80600    2.29800
      O    O83    11.83100    2.95200    2.60000
      C    C84    10.44200    1.71600    0.05600
      H    H85     8.15100    1.26100    1.02600
      H    H86    10.74000    0.71000    1.90100
      H    H87     9.51400    1.60300   -0.48500
      H    H88    10.85600    2.69400   -0.13800
      H    H89    11.14100    0.95800   -0.26500
      N    N90     9.70800    3.69900    2.59600
      C    C91    10.02400    4.93000    3.31000
      C    C92     9.78200    4.76800    4.80700
      O    O93    10.37900    5.47000    5.62300
      C    C94     9.18400    6.08900    2.76900
      C    C95    10.00900    7.28600    2.32700
      C    C96     9.16800    8.55100    2.26700
      N    N97     8.99300    9.02800    0.89800
      C    C98     8.27500   10.10000    0.57900
      N    N99     7.66900   10.80200    1.52700
      N    N100     8.16300   10.47100   -0.69000
      H    H101     8.78100    3.52700    2.32800
      H    H102    11.06900    5.14900    3.14800
      H    H103     8.61400    5.73900    1.92100
      H    H104     8.50200    6.41400    3.54100
      H    H105    10.81500    7.43600    3.03100
      H    H106    10.41700    7.08800    1.34700
      H    H107     8.19700    8.34300    2.69200
      H    H108     9.65700    9.32000    2.84700
      H    H109     9.43300    8.52500    0.18200
      H    H110     7.75200   10.52500    2.48400
      H    H111     7.13000   11.60900    1.28400
      H    H112     8.61900    9.94500   -1.40600
      H    H113     7.62300   11.27700   -0.92900
      N    N114     8.90100    3.83700    5.16200
      C    C115     8.59500    3.60000    6.56100
      C    C116     9.75700    2.98000    7.31100
      O    O117     9.92400    3.21000    8.50900
      H    H118     8.45500    3.30800    4.46800
      H    H119     8.33900    4.54000    7.02600
      H    H120     7.74600    2.93600    6.62400
      N    N121    10.56100    2.19100    6.60700
      C    C122    11.71200    1.53400    7.21500
      C    C123    12.83800    2.53200    7.46500
      O    O124    13.63600    2.36400    8.38700
      C    C125    12.21100    0.39900    6.31800
      C    C126    13.28600   -0.46000    6.96400
      C    C127    13.50400   -1.75200    6.19300
      N    N128    13.07600   -2.92200    6.95600
      C    C129    13.33400   -4.17300    6.58900
      N    N130    14.01500   -4.41400    5.47700
      N    N131    12.91200   -5.18500    7.33600
      H    H132    10.37600    2.04600    5.65500
      H    H133    11.39600    1.12000    8.16100
      H    H134    11.37600   -0.23800    6.06400
      H    H135    12.61700    0.82500    5.41300
      H    H136    14.21300    0.09500    6.98400
      H    H137    12.98400   -0.69800    7.97300
      H    H138    12.93800   -1.70800    5.27400
      H    H139    14.55500   -1.84700    5.96500
      H    H140    12.57200   -2.76700    7.78100
      H    H141    14.33500   -3.65300    4.91300
      H    H142    14.20900   -5.35600    5.20300
      H    H143    12.39900   -5.00700    8.17500
      H    H144    13.10700   -6.12600    7.05900
      N    N145    12.89700    3.57000    6.63800
      C    C146    13.92400    4.59600    6.77100
      C    C147    13.87400    5.24800    8.14800
      O    O148    14.89200    5.71000    8.66300
      C    C149    13.76500    5.64600    5.68100
      H    H150    12.23300    3.64900    5.92200
      H    H151    14.88700    4.12200    6.64200
      H    H152    14.71800    5.81100    5.19900
      H    H153    13.04700    5.30200    4.95200
      H    H154    13.41900    6.57000    6.12100
      N    N155    12.68500    5.28100    8.73900
      C    C156    12.50200    5.87900   10.05700
      C    C157    13.50300    5.30600   11.05600
      O    O158    14.43500    5.99000   11.47900
      C    C159    11.07500    5.64200   10.55400
      C    C160    10.71000    6.47200   11.77400
      C    C161     9.28700    6.19400   12.23200
      N    N162     8.50700    7.42100   12.37100
      C    C163     7.95700    8.06200   11.34600
      N    N164     8.10100    7.59500   10.11400
      N    N165     7.26200    9.17300   11.55300
      H    H166    11.91000    4.89600    8.27800
      H    H167    12.67100    6.94100    9.96500
      H    H168    10.38400    5.88600    9.76100
      H    H169    10.96400    4.59900   10.80900
      H    H170    11.38900    6.23000   12.57900
      H    H171    10.80200    7.51900   11.52600
      H    H172     8.80800    5.55500   11.50600
      H    H173     9.32300    5.69000   13.18700
      H    H174     8.38900    7.78300   13.27300
      H    H175     8.62400    6.75800    9.95500
      H    H176     7.68500    8.08000    9.34400
      H    H177     7.15100    9.52800   12.48100
      H    H178     6.84800    9.65500   10.78100
      N    N179    13.30200    4.04700   11.43100
      C    C180    14.18600    3.38100   12.38100
      C    C181    15.63300    3.42300   11.90100
      O    O182    16.56200    3.51200   12.70400
      C    C183    13.74700    1.93100   12.58700
      C    C184    12.28400    1.72200   12.97900
      C    C185    11.83600    0.30900   12.63700
      C    C186    12.08300    2.00200   14.46100
      H    H187    12.54200    3.55300   11.06000
      H    H188    14.11600    3.90700   13.32200
      H    H189    13.92100    1.39900   11.66400
      H    H190    14.36300    1.50600   13.36600
      H    H191    11.66600    2.41100   12.42100
      H    H192    10.77700    0.30700   12.42900
      H    H193    12.04000   -0.34500   13.47200
      H    H194    12.37400   -0.03900   11.76700
      H    H195    11.99200    1.06800   14.99500
      H    H196    11.18500    2.58600   14.59800
      H    H197    12.93200    2.55300   14.84100
      N    N198    15.81700    3.36100   10.58600
      C    C199    17.15000    3.39300    9.99900
      C    C200    17.89300    4.66400   10.40300
      O    O201    18.97900    4.60300   10.97700
      C    C202    17.06200    3.30500    8.47400
      C    C203    18.26700    2.63900    7.83100
      C    C204    19.54000    3.43300    8.07800
      N    N205    19.42600    4.81100    7.60900
      C    C206    20.25800    5.78200    7.97000
      N    N207    21.26100    5.52600    8.79800
      N    N208    20.08800    7.01100    7.50000
      H    H209    15.03600    3.29200    9.99700
      H    H210    17.69700    2.53800   10.36800
      H    H211    16.18100    2.73900    8.20800
      H    H212    16.97300    4.30400    8.07300
      H    H213    18.38600    1.65000    8.24900
      H    H214    18.10000    2.56500    6.76700
      H    H215    19.74400    3.44000    9.13900
      H    H216    20.35500    2.95200    7.55800
      H    H217    18.69100    5.02300    6.99600
      H    H218    21.39200    4.60000    9.15200
      H    H219    21.88700    6.25800    9.06700
      H    H220    19.33400    7.20800    6.87500
      H    H221    20.71500    7.74100    7.77200
      N    N222    17.29800    5.81300   10.09900
      C    C223    17.90100    7.09700   10.43200
      C    C224    18.15900    7.21000   11.93100
      O    O225    19.22800    7.64700   12.35600
      C    C226    17.01100    8.23700    9.96000
      H    H227    16.43200    5.79600    9.64100
      H    H228    18.84400    7.16900    9.90900
      H    H229    15.99400    8.05400   10.27800
      H    H230    17.36000    9.16600   10.38600
      H    H231    17.04600    8.29800    8.88300
      N    N232    17.17100    6.81400   12.72800
      C    C233    17.29200    6.87100   14.18000
      C    C234    18.43500    5.99100   14.67200
      O    O235    19.17700    6.36800   15.57800
      C    C236    15.98600    6.43000   14.86900
      C    C237    16.14100    6.47100   16.38200
      C    C238    14.82600    7.30500   14.41900
      H    H239    16.34300    6.47500   12.33000
      H    H240    17.49300    7.89500   14.45900
      H    H241    15.77600    5.41200   14.57800
      H    H242    15.17500    6.63400   16.83700
      H    H243    16.55000    5.53400   16.72800
      H    H244    16.80600    7.27700   16.65400
      H    H245    15.19500    8.09700   13.78600
      H    H246    14.11600    6.70500   13.86900
      H    H247    14.34000    7.73200   15.28500
      N    N248    18.57200    4.81500   14.06600
      C    C249    19.62800    3.89900   14.45600
      C    C250    20.99900    4.54500   14.42000
      O    O251    21.81800    4.32800   15.31200
      H    H252    17.95100    4.56700   13.35000
      H    H253    19.43300    3.54700   15.45800
      H    H254    19.62400    3.05500   13.78100
      N    N255    21.24900    5.34200   13.38600
      C    C256    22.53000    6.02200   13.23800
      C    C257    22.88700    6.80000   14.50100
      O    O258    23.89500    6.51800   15.15000
      C    C259    22.49800    6.95200   12.03500
      H    H260    20.55600    5.47600   12.70700
      H    H261    23.28800    5.27200   13.06300
      H    H262    23.39700    7.55000   12.01900
      H    H263    22.43800    6.36600   11.12900
      H    H264    21.63600    7.59900   12.10300
      N    N265    22.05600    7.77900   14.84200
      C    C266    22.28500    8.59600   16.02600
      C    C267    21.53700    8.03900   17.23200
      O    O268    22.07700    7.23800   17.99600
      C    C269    21.85000   10.05600   15.79600
      C    C270    22.55200   10.63200   14.56400
      C    C271    22.15100   10.89800   17.02600
      C    C272    21.61700   10.89800   13.40500
      H    H273    21.27000    7.95500   14.28400
      H    H274    23.34500    8.58700   16.23800
      H    H275    20.78300   10.06800   15.63300
      H    H276    23.02300   11.56500   14.83000
      H    H277    23.30600    9.93400   14.23000
      H    H278    21.49900   10.60100   17.83500
      H    H279    23.17900   10.75000   17.32100
      H    H280    21.98800   11.94100   16.79800
      H    H281    20.63500   10.51000   13.63900
      H    H282    21.55000   11.96200   13.23300
      H    H283    21.99400   10.41100   12.51900
