# CIF file generated by openbabel 2.3.2, see http://openbabel.sf.net
data_I
_chemical_name_common '../proteins/pdb/2M6P.pdb'
_cell_length_a 1
_cell_length_b 1
_cell_length_c 1
_cell_angle_alpha 90
_cell_angle_beta 90
_cell_angle_gamma 90
_space_group_name_H-M_alt 'P 1'
_space_group_name_Hall 'P 1'
loop_
    _symmetry_equiv_pos_as_xyz
    'x,y,z'
loop_
    _atom_site_type_symbol
    _atom_site_label
    _atom_site_Cartn_x
    _atom_site_Cartn_y
    _atom_site_Cartn_z
      N    N1    11.66400    1.36900   -0.76600
      C    C2    11.86600    2.24300   -1.94800
      C    C3    11.05600    3.52900   -1.81600
      O    O4     9.99900    3.53900   -1.18600
      C    C5    11.45400    1.48200   -3.19800
      C    C6    11.38000    0.07500   -2.73400
      C    C7    11.02600    0.13400   -1.26600
      H    H8    11.12100    1.93900   -0.09400
      H    H9    12.60800    1.30400   -0.31600
      H    H10    12.91500    2.49400   -2.01100
      H    H11    10.49600    1.84100   -3.55100
      H    H12    12.20100    1.60600   -3.96700
      H    H13    10.61400   -0.45300   -3.28300
      H    H14    12.33600   -0.40700   -2.86800
      H    H15     9.95600    0.18600   -1.14300
      H    H16    11.42000   -0.73100   -0.75300
      N    N17    11.55300    4.60700   -2.41800
      C    C18    10.90700    5.91100   -2.31500
      C    C19     9.84800    6.06300   -3.39800
      O    O20    10.02400    6.77900   -4.38600
      C    C21    11.93600    7.04800   -2.39500
      C    C22    12.83900    6.98300   -3.61600
      C    C23    13.78800    8.16600   -3.68800
      N    N24    14.75300    8.16800   -2.59000
      C    C25    15.99800    8.62100   -2.70300
      N    N26    16.42200    9.12700   -3.85500
      N    N27    16.81800    8.56600   -1.66100
      H    H28    12.35700    4.51700   -2.96800
      H    H29    10.42000    5.95500   -1.35400
      H    H30    11.41100    7.99100   -2.41500
      H    H31    12.55700    7.01400   -1.51300
      H    H32    13.42000    6.07700   -3.56900
      H    H33    12.22500    6.97100   -4.50300
      H    H34    14.32400    8.12300   -4.62300
      H    H35    13.20900    9.07700   -3.64600
      H    H36    14.45500    7.80800   -1.72600
      H    H37    15.80500    9.17200   -4.64600
      H    H38    17.36300    9.46300   -3.94300
      H    H39    16.49800    8.17500   -0.78400
      H    H40    17.75700    8.90900   -1.73800
      N    N41     8.75300    5.35900   -3.21800
      C    C42     7.67800    5.38400   -4.18500
      C    C43     6.35100    5.66300   -3.50600
      O    O44     6.20700    5.48800   -2.29200
      C    C45     7.60600    4.06000   -4.95000
      C    C46     7.51800    2.83700   -4.05100
      C    C47     7.34700    1.54900   -4.83400
      O    O48     7.81600    1.43000   -5.96500
      N    N49     6.66900    0.57700   -4.24300
      H    H50     8.66200    4.81500   -2.40700
      H    H51     7.88300    6.18000   -4.88100
      H    H52     6.73500    4.07400   -5.58800
      H    H53     8.48900    3.96500   -5.56500
      H    H54     8.42600    2.76800   -3.46900
      H    H55     6.67300    2.95300   -3.38800
      H    H56     6.32000    0.73600   -3.34300
      H    H57     6.53900   -0.26700   -4.73600
      N    N58     5.39200    6.10900   -4.29300
      C    C59     4.04400    6.29600   -3.80900
      C    C60     3.35100    4.95400   -3.80100
      O    O61     3.11300    4.36000   -4.85200
      C    C62     3.25200    7.27500   -4.69300
      C    C63     4.05600    8.55700   -4.89400
      C    C64     1.89200    7.57300   -4.07300
      C    C65     4.05500    9.49400   -3.70300
      H    H66     5.59600    6.30100   -5.23400
      H    H67     4.08700    6.68500   -2.80300
      H    H68     3.08800    6.80600   -5.65200
      H    H69     5.07900    8.27900   -5.07800
      H    H70     3.66900    9.09400   -5.74600
      H    H71     1.36100    8.27900   -4.69500
      H    H72     2.03200    7.99400   -3.08800
      H    H73     1.32200    6.65800   -3.99700
      H    H74     4.56900   10.40600   -3.96400
      H    H75     4.56100    9.02200   -2.87400
      H    H76     3.03800    9.72100   -3.42300
      N    N77     3.03000    4.47800   -2.62100
      C    C78     2.44400    3.16100   -2.49100
      C    C79     0.94100    3.26500   -2.63800
      O    O80     0.34200    4.28300   -2.28200
      C    C81     2.82500    2.52100   -1.16400
      H    H82     3.18200    5.03100   -1.82100
      H    H83     2.83000    2.54400   -3.29000
      H    H84     3.89400    2.37100   -1.13400
      H    H85     2.32600    1.56600   -1.06600
      H    H86     2.52800    3.16500   -0.35300
      N    N87     0.33900    2.22800   -3.18400
      C    C88    -1.06000    2.27400   -3.54800
      C    C89    -1.76700    1.02500   -3.06300
      O    O90    -1.64700   -0.04400   -3.65500
      C    C91    -1.20500    2.41300   -5.06400
      C    C92    -2.64400    2.51800   -5.54100
      C    C93    -2.71600    2.68900   -7.05100
      N    N94    -1.98700    3.87600   -7.49800
      C    C95    -2.51600    4.84100   -8.25400
      N    N96    -3.77300    4.75600   -8.68500
      N    N97    -1.78000    5.89400   -8.58900
      H    H98     0.84000    1.39500   -3.31900
      H    H99    -1.50100    3.13700   -3.06800
      H    H100    -0.68100    3.30100   -5.38300
      H    H101    -0.75300    1.55300   -5.53900
      H    H102    -3.17200    1.61700   -5.26500
      H    H103    -3.10700    3.37100   -5.06800
      H    H104    -2.29000    1.81600   -7.52200
      H    H105    -3.75300    2.78300   -7.34000
      H    H106    -1.04600    3.95900   -7.21000
      H    H107    -4.34100    3.95800   -8.45100
      H    H108    -4.16300    5.49400   -9.24000
      H    H109    -0.82700    5.96600   -8.27900
      H    H110    -2.17700    6.63000   -9.14700
      N    N111    -2.50900    1.17300   -1.99200
      C    C112    -3.21200    0.06000   -1.39900
      C    C113    -4.65800    0.06600   -1.85700
      O    O114    -5.36400    1.06000   -1.69900
      C    C115    -3.11800    0.14300    0.12900
      C    C116    -1.69600    0.09600    0.64300
      C    C117    -1.05400   -1.11900    0.83900
      C    C118    -0.98600    1.26100    0.91700
      C    C119     0.25000   -1.17600    1.29400
      C    C120     0.31900    1.20900    1.36800
      C    C121     0.93200   -0.00700    1.55400
      O    O122     2.22900   -0.05100    2.00600
      H    H123    -2.58600    2.05900   -1.58600
      H    H124    -2.73900   -0.85000   -1.73500
      H    H125    -3.56300    1.06900    0.46300
      H    H126    -3.65600   -0.68700    0.56300
      H    H127    -1.59100   -2.03200    0.63500
      H    H128    -1.46700    2.22200    0.77500
      H    H129     0.72900   -2.13400    1.43700
      H    H130     0.85500    2.12100    1.57400
      H    H131     2.34000    0.58100    2.72200
      N    N132    -5.08600   -1.03100   -2.45900
      C    C133    -6.44600   -1.14000   -2.95700
      C    C134    -7.31300   -1.84300   -1.92900
      O    O135    -7.05400   -2.98600   -1.55300
      C    C136    -6.47300   -1.88300   -4.29200
      C    C137    -7.83200   -1.86000   -4.97000
      C    C138    -7.76700   -2.46700   -6.36300
      N    N139    -6.90900   -1.69200   -7.25800
      C    C140    -6.20800   -2.21900   -8.26100
      N    N141    -6.26000   -3.52100   -8.50900
      N    N142    -5.45200   -1.44100   -9.01900
      H    H143    -4.46600   -1.79000   -2.57600
      H    H144    -6.82700   -0.14100   -3.10200
      H    H145    -5.75400   -1.42900   -4.95800
      H    H146    -6.19600   -2.91500   -4.12400
      H    H147    -8.52900   -2.42600   -4.37200
      H    H148    -8.16900   -0.83600   -5.04900
      H    H149    -7.37500   -3.46800   -6.28700
      H    H150    -8.76300   -2.49900   -6.77700
      H    H151    -6.85400   -0.72100   -7.10000
      H    H152    -6.82500   -4.12100   -7.94200
      H    H153    -5.73400   -3.91100   -9.27200
      H    H154    -5.40600   -0.44500   -8.84000
      H    H155    -4.92200   -1.83800   -9.77300
      N    N156    -8.32400   -1.13600   -1.46500
      C    C157    -9.18300   -1.62000   -0.40100
      C    C158   -10.25100   -2.57000   -0.92700
      O    O159   -10.36800   -2.77400   -2.13700
      C    C160    -9.83300   -0.44300    0.32200
      O    O161   -10.55000    0.37100   -0.61300
      C    C162    -8.76600    0.38500    1.01900
      H    H163    -8.50500   -0.25400   -1.85700
      H    H164    -8.57700   -2.14100    0.31600
      H    H165   -10.51600   -0.82500    1.06200
      H    H166    -9.94600    1.01500   -1.00600
      H    H167    -9.22400    1.24600    1.48300
      H    H168    -8.03600    0.71300    0.29600
      H    H169    -8.28300   -0.21500    1.77700
      N    N170   -11.03000   -3.13600   -0.00800
      C    C171   -12.09200   -4.08600   -0.34900
      C    C172   -13.10900   -3.45400   -1.29500
      O    O173   -13.72000   -4.13800   -2.11600
      C    C174   -12.78800   -4.56700    0.93000
      C    C175   -13.89100   -5.57100    0.66100
      O    O176   -13.58300   -6.77000    0.50000
      O    O177   -15.07100   -5.16800    0.62400
      H    H178   -10.88200   -2.91900    0.93400
      H    H179   -11.63700   -4.93200   -0.84100
      H    H180   -12.05600   -5.03100    1.57300
      H    H181   -13.21700   -3.71500    1.44000
      N    N182   -13.26000   -2.13700   -1.19000
      C    C183   -14.19100   -1.39700   -2.03400
      C    C184   -13.61800   -1.18900   -3.43000
      O    O185   -14.33500   -0.80600   -4.35300
      C    C186   -14.51800   -0.03300   -1.41500
      C    C187   -15.25300   -0.14000   -0.09700
      O    O188   -16.00700   -1.08200    0.13300
      N    N189   -15.03800    0.82800    0.77900
      H    H190   -12.73200   -1.65200   -0.52300
      H    H191   -15.09900   -1.97300   -2.11200
      H    H192   -13.59800    0.50700   -1.24700
      H    H193   -15.13400    0.52500   -2.10300
      H    H194   -14.42000    1.55200    0.53000
      H    H195   -15.50300    0.78800    1.64100
      N    N196   -12.32300   -1.43600   -3.58200
      C    C197   -11.67000   -1.18900   -4.84900
      C    C198   -11.02200    0.17900   -4.88300
      O    O199   -10.32600    0.52800   -5.84100
      H    H200   -11.80500   -1.80500   -2.83100
      H    H201   -10.91100   -1.94300   -5.00800
      H    H202   -12.40000   -1.25100   -5.63500
      N    N203   -11.26100    0.94900   -3.82800
      C    C204   -10.66700    2.26900   -3.68300
      C    C205    -9.15800    2.14400   -3.53700
      O    O206    -8.67100    1.36600   -2.71100
      C    C207   -11.24100    2.98000   -2.45600
      C    C208   -12.75300    3.12200   -2.46800
      C    C209   -13.24700    4.08500   -3.52700
      O    O210   -13.22500    5.30700   -3.27500
      O    O211   -13.68700    3.62600   -4.60000
      H    H212   -11.85200    0.61500   -3.12400
      H    H213   -10.89200    2.84300   -4.56900
      H    H214   -10.96300    2.42500   -1.57300
      H    H215   -10.80900    3.96900   -2.39600
      H    H216   -13.19200    2.15300   -2.65200
      H    H217   -13.07300    3.48100   -1.50100
      N    N218    -8.42500    2.89200   -4.34400
      C    C219    -6.97500    2.88500   -4.27900
      C    C220    -6.49400    4.01100   -3.37900
      O    O221    -7.01600    5.12500   -3.43400
      C    C222    -6.37100    3.03700   -5.67300
      C    C223    -6.81400    1.97000   -6.65500
      C    C224    -6.13000    2.11000   -7.99500
      O    O225    -6.27500    3.17600   -8.62700
      O    O226    -5.43600    1.16300   -8.41500
      H    H227    -8.87300    3.47400   -4.99700
      H    H228    -6.66400    1.94100   -3.85800
      H    H229    -6.65500    3.99900   -6.07100
      H    H230    -5.29600    2.99600   -5.59100
      H    H231    -6.57800    0.99900   -6.24500
      H    H232    -7.88100    2.05100   -6.80100
      N    N233    -5.50400    3.72400   -2.55500
      C    C234    -5.01500    4.70300   -1.59800
      C    C235    -3.54600    4.99000   -1.82200
      O    O236    -2.72400    4.07500   -1.86100
      C    C237    -5.24200    4.22200   -0.16400
      C    C238    -6.65900    4.38500    0.31100
      C    C239    -7.66700    3.56800   -0.17300
      C    C240    -6.97900    5.35400    1.24600
      C    C241    -8.96800    3.71900    0.26500
      C    C242    -8.27900    5.50800    1.68800
      C    C243    -9.27500    4.68800    1.19700
      H    H244    -5.08300    2.83000   -2.59600
      H    H245    -5.57000    5.61600   -1.75100
      H    H246    -4.99100    3.17400   -0.10200
      H    H247    -4.60000    4.78000    0.50100
      H    H248    -7.42800    2.81000   -0.90200
      H    H249    -6.20200    5.99600    1.63100
      H    H250    -9.74600    3.07500   -0.12000
      H    H251    -8.51600    6.26800    2.41900
      H    H252   -10.29100    4.80600    1.54000
      N    N253    -3.23000    6.26500   -1.97700
      C    C254    -1.86200    6.69500   -2.19500
      C    C255    -1.21000    7.11500   -0.88100
      O    O256    -1.81200    7.82900   -0.07500
      C    C257    -1.81800    7.84500   -3.20300
      C    C258    -2.70000    9.02800   -2.83400
      C    C259    -2.55800   10.17400   -3.80900
      O    O260    -3.17800   10.11900   -4.89200
      O    O261    -1.80400   11.11900   -3.50900
      H    H262    -3.94000    6.93800   -1.93400
      H    H263    -1.31400    5.85600   -2.59700
      H    H264    -0.80100    8.19600   -3.28100
      H    H265    -2.13500    7.47600   -4.16700
      H    H266    -3.73000    8.70600   -2.82600
      H    H267    -2.42100    9.37400   -1.84900
      N    N268     0.02500    6.67700   -0.68500
      C    C269     0.77000    6.92500    0.54200
      C    C270     2.26200    6.94400    0.23000
      O    O271     2.85400    5.91800   -0.10700
      C    C272     0.48800    5.87100    1.64300
      C    C273    -0.81900    6.14600    2.37100
      C    C274     0.45100    4.48300    1.06100
      H    H275     0.47300    6.19200   -1.41100
      H    H276     0.47500    7.88900    0.91700
      H    H277     1.29600    5.91300    2.35900
      H    H278    -1.62700    6.18900    1.65500
      H    H279    -0.75200    7.08400    2.90000
      H    H280    -1.00900    5.34500    3.07300
      H    H281    -0.26100    4.45400    0.25300
      H    H282     0.15400    3.78700    1.83100
      H    H283     1.42900    4.22500    0.69400
      N    N284     2.88000    8.12300    0.27200
      C    C285     4.30100    8.29400   -0.05600
      C    C286     5.23400    7.75300    1.02600
      O    O287     5.19600    8.19500    2.17700
      C    C288     4.44400    9.81800   -0.18400
      C    C289     3.03900   10.31900   -0.28100
      C    C290     2.25700    9.40800    0.59900
      H    H291     4.54400    7.82800   -1.00000
      H    H292     4.94500   10.21000    0.68900
      H    H293     5.00900   10.05700   -1.07000
      H    H294     2.97700   11.33800    0.06900
      H    H295     2.68300   10.23600   -1.30100
      H    H296     2.39700    9.66600    1.64200
      H    H297     1.21400    9.41900    0.33100
      N    N298     6.06300    6.78900    0.65200
      C    C299     7.06000    6.23200    1.56000
      C    C300     8.46300    6.64800    1.13500
      O    O301     8.68400    7.03200   -0.01600
      C    C302     6.97200    4.70600    1.59500
      C    C303     5.81000    4.17400    2.38600
      C    C304     5.93300    3.95400    3.74700
      C    C305     4.60400    3.88500    1.77000
      C    C306     4.87200    3.45900    4.48200
      C    C307     3.54100    3.38700    2.49900
      C    C308     3.67500    3.17600    3.85700
      H    H309     6.00700    6.44100   -0.26500
      H    H310     6.86200    6.62000    2.54800
      H    H311     6.87800    4.33700    0.58500
      H    H312     7.87700    4.31300    2.03400
      H    H313     6.87000    4.17400    4.23700
      H    H314     4.49800    4.05200    0.70900
      H    H315     4.98000    3.29600    5.54500
      H    H316     2.60600    3.16400    2.00600
      H    H317     2.84400    2.78700    4.43000
      N    N318     9.40200    6.57000    2.06500
      C    C319    10.79200    6.88700    1.77600
      C    C320    11.54000    5.63300    1.32700
      O    O321    11.03100    4.52000    1.46100
      C    C322    11.45200    7.50600    2.99500
      H    H323     9.15400    6.29300    2.97000
      H    H324    10.81000    7.61200    0.97400
      H    H325    10.92200    8.40500    3.27300
      H    H326    12.47900    7.74900    2.76400
      H    H327    11.42500    6.80300    3.81500
      N    N328    12.75400    5.80600    0.81300
      C    C329    13.50800    4.68900    0.24600
      C    C330    14.07200    3.77600    1.32700
      O    O331    14.62600    2.72200    1.02700
      C    C332    14.63200    5.18700   -0.67000
      C    C333    15.69000    5.98500    0.06000
      O    O334    15.46600    7.19200    0.30100
      O    O335    16.75100    5.41900    0.38400
      H    H336    13.14900    6.70600    0.81300
      H    H337    12.81600    4.11200   -0.34600
      H    H338    15.11100    4.33800   -1.13300
      H    H339    14.20500    5.81400   -1.43900
      N    N340    13.90800    4.16400    2.58100
      C    C341    14.36200    3.33700    3.69200
      C    C342    13.24400    2.40700    4.14600
      O    O343    13.47600    1.44600    4.88200
      C    C344    14.82800    4.20200    4.87100
      C    C345    13.68800    4.91500    5.57200
      O    O346    13.24200    5.96400    5.07000
      O    O347    13.24200    4.43800    6.64000
      H    H348    13.47300    5.02300    2.76500
      H    H349    15.19200    2.74100    3.34300
      H    H350    15.32700    3.57200    5.59300
      H    H351    15.52500    4.94400    4.51000
      N    N352    12.03100    2.68800    3.68900
      C    C353    10.86200    1.92700    4.10200
      C    C354    10.50800    0.85500    3.07400
      O    O355    10.49800    1.11000    1.86600
      C    C356     9.67600    2.85700    4.32400
      H    H357    11.91900    3.42000    3.04700
      H    H358    11.09400    1.44900    5.04300
      H    H359     9.94500    3.62000    5.04000
      H    H360     8.83900    2.28800    4.70300
      H    H361     9.40100    3.32100    3.38900
      N    N362    10.22800   -0.34400    3.56800
      C    C363     9.80300   -1.45400    2.72200
      C    C364     8.30000   -1.37400    2.47500
      O    O365     7.54400   -0.94700    3.35100
      C    C366    10.17000   -2.79100    3.37800
      C    C367     9.60600   -2.95900    4.78200
      C    C368    10.14200   -4.18400    5.49100
      O    O369    11.31700   -4.16200    5.92300
      O    O370     9.38600   -5.16600    5.65100
      H    H371    10.30300   -0.48600    4.53400
      H    H372    10.31900   -1.36900    1.77800
      H    H373     9.79000   -3.59400    2.76400
      H    H374    11.24600   -2.87100    3.43300
      H    H375     9.85700   -2.08800    5.36700
      H    H376     8.53200   -3.04400    4.71200
      N    N377     7.87000   -1.78000    1.28600
      C    C378     6.46700   -1.66200    0.90500
      C    C379     5.77000   -3.01900    0.95800
      O    O380     6.08000   -3.91600    0.16800
      C    C381     6.31200   -1.07400   -0.51800
      C    C382     7.13000    0.21400   -0.66300
      C    C383     4.84500   -0.80600   -0.83300
      C    C384     6.70600    1.32200    0.27700
      H    H385     8.50500   -2.17800    0.65400
      H    H386     5.98700   -0.99300    1.60300
      H    H387     6.67800   -1.80400   -1.22500
      H    H388     8.16700   -0.00600   -0.46400
      H    H389     7.03300    0.57900   -1.67500
      H    H390     4.76000   -0.40500   -1.83200
      H    H391     4.44800   -0.09300   -0.12300
      H    H392     4.28800   -1.73000   -0.76700
      H    H393     5.66800    1.56500    0.10400
      H    H394     7.31400    2.19500    0.10000
      H    H395     6.83400    0.99600    1.29800
      N    N396     4.83400   -3.18800    1.90400
      C    C397     4.01500   -4.38800    2.00100
      C    C398     2.76800   -4.30000    1.12500
      O    O399     2.44900   -3.23800    0.58800
      C    C400     3.63700   -4.41100    3.47800
      C    C401     3.54900   -2.97200    3.86400
      C    C402     4.50700   -2.21900    2.96900
      H    H403     4.57100   -5.27600    1.75100
      H    H404     2.69000   -4.91500    3.60100
      H    H405     4.40200   -4.92500    4.04100
      H    H406     2.54100   -2.61700    3.71000
      H    H407     3.83300   -2.85200    4.89900
      H    H408     4.02500   -1.34400    2.55800
      H    H409     5.39300   -1.93900    3.51900
      N    N410     2.07100   -5.41500    0.97200
      C    C411     0.84400   -5.41300    0.20500
      C    C412    -0.38200   -5.30100    1.07900
      O    O413    -1.48600   -5.57600    0.63300
      H    H414     2.40400   -6.25700    1.36600
      H    H415     0.85500   -4.57100   -0.47000
      H    H416     0.78300   -6.31700   -0.37300
      N    N417    -0.19000   -4.90200    2.32700
      C    C418    -1.30800   -4.61200    3.21200
      C    C419    -0.95800   -3.47200    4.15800
      O    O420     0.15400   -3.40600    4.68400
      C    C421    -1.75200   -5.84500    4.02400
      O    O422    -0.60900   -6.59600    4.45600
      C    C423    -2.68500   -6.73400    3.20900
      H    H424     0.72500   -4.80100    2.66400
      H    H425    -2.13900   -4.29900    2.59300
      H    H426    -2.29000   -5.49600    4.89300
      H    H427    -0.40200   -6.36000    5.36900
      H    H428    -2.92400   -7.62400    3.77300
      H    H429    -2.20100   -7.01200    2.28300
      H    H430    -3.59300   -6.19400    2.98900
      N    N431    -1.91100   -2.57400    4.36000
      C    C432    -1.68400   -1.37200    5.14800
      C    C433    -3.02000   -0.74100    5.51800
      O    O434    -3.89000   -0.57200    4.65600
      C    C435    -0.84300   -0.39200    4.32600
      C    C436    -0.25300    0.75500    5.09200
      C    C437    -0.68400    2.05000    5.09000
      C    C438     0.90100    0.71500    5.94100
      N    N439     0.12900    2.81700    5.88700
      C    C440     1.10600    2.01900    6.42600
      C    C441     1.77500   -0.29600    6.34100
      C    C442     2.15200    2.33500    7.29100
      C    C443     2.81100    0.01800    7.19800
      C    C444     2.99200    1.32400    7.66600
      H    H445    -2.79700   -2.72300    3.96400
      H    H446    -1.15200   -1.64200    6.04700
      H    H447    -0.02700   -0.93200    3.87500
      H    H448    -1.46200    0.01900    3.54200
      H    H449    -1.53900    2.40800    4.53300
      H    H450     0.02500    3.78400    6.04700
      H    H451     1.65300   -1.31000    5.99100
      H    H452     2.30500    3.33800    7.66200
      H    H453     3.49700   -0.75100    7.51700
      H    H454     3.81500    1.52200    8.33300
      N    N455    -3.19000   -0.41700    6.79200
      C    C456    -4.41100    0.22300    7.26200
      C    C457    -4.56000    1.59000    6.60700
      O    O458    -3.70000    2.45500    6.76200
      C    C459    -4.38100    0.36600    8.78800
      C    C460    -5.65400    0.93200    9.42200
      C    C461    -6.81900   -0.02200    9.22300
      C    C462    -5.43600    1.20800   10.90500
      H    H463    -2.47000   -0.60200    7.43300
      H    H464    -5.24600   -0.39900    6.97600
      H    H465    -4.19600   -0.60800    9.21400
      H    H466    -3.55900    1.01600    9.04900
      H    H467    -5.90400    1.86600    8.94000
      H    H468    -7.69700    0.37600    9.71000
      H    H469    -6.57400   -0.98500    9.64800
      H    H470    -7.01400   -0.13400    8.16700
      H    H471    -6.33600    1.62900   11.32800
      H    H472    -4.62000    1.90500   11.02700
      H    H473    -5.19800    0.28400   11.41300
      N    N474    -5.64300    1.78000    5.87000
      C    C475    -5.81800    2.99300    5.09500
      C    C476    -6.75800    3.95300    5.81000
      O    O477    -7.30900    3.62400    6.86200
      C    C478    -6.35100    2.64600    3.70600
      S    S479    -5.33400    1.44200    2.81900
      H    H480    -6.35400    1.10000    5.86400
      H    H481    -4.85300    3.46300    4.99300
      H    H482    -7.34300    2.23200    3.80100
      H    H483    -6.39600    3.54500    3.11200
      H    H484    -4.57500    0.81100    3.71100
      N    N485    -6.96300    5.12400    5.21600
      C    C486    -7.76200    6.18200    5.83100
      C    C487    -9.23500    5.79000    5.92500
      O    O488   -10.03200    6.47700    6.56600
      C    C489    -7.60000    7.47800    5.02900
      C    C490    -6.16700    7.98400    5.00100
      C    C491    -5.95500    9.05600    3.94200
      N    N492    -6.74400   10.26000    4.18400
      C    C493    -6.81200   11.27700    3.32400
      N    N494    -6.14600   11.22800    2.17600
      N    N495    -7.55100   12.34000    3.61200
      H    H496    -6.56200    5.28600    4.33600
      H    H497    -7.38200    6.33900    6.82800
      H    H498    -7.91600    7.30200    4.01400
      H    H499    -8.21900    8.24400    5.46700
      H    H500    -5.92700    8.39700    5.96700
      H    H501    -5.51200    7.15100    4.79100
      H    H502    -4.91100    9.32400    3.92800
      H    H503    -6.23000    8.64700    2.98000
      H    H504    -7.24500   10.31400    5.02900
      H    H505    -5.59100   10.42600    1.94700
      H    H506    -6.19100   11.99600    1.53200
      H    H507    -8.05900   12.38300    4.47400
      H    H508    -7.60500   13.10800    2.96500
      N    N509    -9.59200    4.68100    5.29200
      C    C510   -10.96200    4.18300    5.32700
      C    C511   -11.16500    3.21300    6.48800
      O    O512   -12.29600    2.89600    6.84900
      C    C513   -11.32900    3.50000    4.00500
      C    C514   -10.45800    2.29500    3.69000
      O    O515    -9.30900    2.20700    4.12400
      N    N516   -10.99500    1.36000    2.92100
      H    H517    -8.91500    4.17900    4.78900
      H    H518   -11.61100    5.03300    5.47200
      H    H519   -12.35600    3.17100    4.05200
      H    H520   -11.22400    4.21400    3.20200
      H    H521   -11.91800    1.49100    2.61000
      H    H522   -10.44800    0.58200    2.68000
      N    N523   -10.07100    2.73700    7.07300
      C    C524   -10.18100    1.83100    8.20100
      C    C525   -10.10700    0.38000    7.77500
      O    O526   -10.47400   -0.52300    8.52900
      H    H527    -9.17900    2.99300    6.73500
      H    H528    -9.37900    2.03700    8.89500
      H    H529   -11.12500    2.00000    8.69600
      N    N530    -9.64000    0.16300    6.55800
      C    C531    -9.46500   -1.17700    6.02200
      C    C532    -8.04200   -1.33300    5.50700
      O    O533    -7.45200   -0.37300    5.01100
      C    C534   -10.47300   -1.43000    4.89500
      C    C535   -10.35500   -2.80700    4.25800
      S    S536   -10.72700   -4.14800    5.40800
      C    C537   -12.46600   -3.85100    5.73400
      H    H538    -9.40300    0.93100    5.99700
      H    H539    -9.63300   -1.88600    6.81800
      H    H540   -11.47100   -1.32800    5.29300
      H    H541   -10.32600   -0.68800    4.12800
      H    H542   -11.04100   -2.86300    3.42700
      H    H543    -9.34500   -2.93000    3.89700
      H    H544   -12.83100   -4.59500    6.42500
      H    H545   -13.02100   -3.91000    4.81100
      H    H546   -12.59100   -2.87000    6.16600
      N    N547    -7.48100   -2.52400    5.65000
      C    C548    -6.15200   -2.79400    5.12700
      C    C549    -6.21500   -3.01200    3.62400
      O    O550    -6.72500   -4.02700    3.15400
      C    C551    -5.52900   -4.01300    5.80700
      C    C552    -5.21500   -3.80100    7.27600
      C    C553    -4.50200   -4.98700    7.88600
      O    O554    -5.18700   -5.90200    8.38800
      O    O555    -3.25500   -5.01100    7.87100
      H    H556    -7.97000   -3.23600    6.11000
      H    H557    -5.53700   -1.92800    5.32500
      H    H558    -6.21700   -4.84200    5.72700
      H    H559    -4.61200   -4.26800    5.29600
      H    H560    -4.58800   -2.92700    7.37800
      H    H561    -6.14100   -3.64300    7.81100
      N    N562    -5.71900   -2.04400    2.87900
      C    C563    -5.70600   -2.15800    1.44000
      C    C564    -4.51600   -2.95600    0.95500
      O    O565    -3.49500   -3.03300    1.63800
      H    H566    -5.35200   -1.24300    3.31200
      H    H567    -6.61300   -2.64800    1.11900
      H    H568    -5.66800   -1.16900    1.01000
      N    N569    -4.64800   -3.55200   -0.21300
      C    C570    -3.58000   -4.34100   -0.79200
      C    C571    -2.82600   -3.55200   -1.85800
      O    O572    -3.39300   -3.17200   -2.88500
      C    C573    -4.13400   -5.64300   -1.39000
      O    O574    -4.72600   -6.43300   -0.35000
      C    C575    -3.04700   -6.44400   -2.09300
      H    H576    -5.49800   -3.46800   -0.70500
      H    H577    -2.89200   -4.60500   -0.00400
      H    H578    -4.89400   -5.38600   -2.10700
      H    H579    -4.15500   -6.41400    0.42800
      H    H580    -2.27700   -6.70500   -1.38200
      H    H581    -2.61900   -5.84800   -2.88700
      H    H582    -3.47400   -7.34600   -2.50900
      N    N583    -1.55900   -3.27300   -1.58900
      C    C584    -0.69100   -2.65200   -2.57000
      C    C585    -0.38700   -3.66700   -3.65500
      O    O586    -0.17300   -4.85000   -3.38400
      C    C587     0.57500   -2.10500   -1.87800
      C    C588     1.75600   -1.63100   -2.74100
      C    C589     2.61800   -2.79500   -3.17900
      C    C590     1.28500   -0.84700   -3.93600
      H    H591    -1.19700   -3.49900   -0.70700
      H    H592    -1.23400   -1.82900   -3.01300
      H    H593     0.27000   -1.25900   -1.27500
      H    H594     0.94000   -2.87300   -1.22200
      H    H595     2.37100   -0.97800   -2.14900
      H    H596     2.98300   -3.31800   -2.30600
      H    H597     3.45500   -2.42400   -3.75400
      H    H598     2.03400   -3.47000   -3.78500
      H    H599     0.37600   -0.32800   -3.67800
      H    H600     1.10200   -1.52300   -4.75400
      H    H601     2.04200   -0.13300   -4.21700
      N    N602    -0.39600   -3.19000   -4.87800
      C    C603    -0.28200   -4.04000   -6.03800
      C    C604     1.14700   -4.54900   -6.16600
      O    O605     2.04300   -3.82800   -6.60700
      C    C606    -0.69600   -3.30400   -7.32800
      C    C607    -2.14500   -2.76300   -7.24900
      C    C608    -0.55200   -4.22600   -8.53100
      C    C609    -2.32900   -1.48700   -6.43400
      H    H610    -0.44500   -2.22400   -5.00100
      H    H611    -0.94400   -4.88300   -5.89800
      H    H612    -0.01800   -2.48600   -7.45700
      H    H613    -2.49500   -2.55900   -8.24800
      H    H614    -2.77300   -3.52600   -6.81000
      H    H615    -1.20900   -5.07600   -8.41400
      H    H616     0.47000   -4.56900   -8.60200
      H    H617    -0.81500   -3.68800   -9.43000
      H    H618    -2.17800   -1.69700   -5.38500
      H    H619    -3.33000   -1.10300   -6.57800
      H    H620    -1.61500   -0.74500   -6.75600
      N    N621     1.32600   -5.78700   -5.74000
      C    C622     2.61700   -6.47600   -5.73200
      C    C623     3.63300   -5.76900   -4.83300
      O    O624     4.31200   -4.82900   -5.25100
      C    C625     3.15200   -6.62000   -7.15000
      C    C626     2.24700   -7.44100   -8.05600
      C    C627     2.86400   -7.70500   -9.41200
      O    O628     2.68000   -6.87300  -10.32600
      O    O629     3.52600   -8.75000   -9.57200
      H    H630     0.55000   -6.26000   -5.41600
      H    H631     2.44700   -7.46300   -5.32900
      H    H632     3.25600   -5.63600   -7.57900
      H    H633     4.11900   -7.09400   -7.11200
      H    H634     2.04400   -8.38900   -7.58000
      H    H635     1.32000   -6.90600   -8.19700
      N    N636     3.73500   -6.23200   -3.59300
      C    C637     4.60300   -5.58300   -2.63600
      C    C638     5.59300   -6.53300   -1.99100
      O    O639     6.63700   -6.84500   -2.57000
      H    H640     3.21900   -7.02500   -3.32700
      H    H641     5.15000   -4.79900   -3.13900
      H    H642     3.99400   -5.14000   -1.86300
      N    N643     5.24800   -7.01200   -0.80400
      C    C644     6.16100   -7.81700    0.00200
      C    C645     6.19000   -9.27000   -0.45200
      O    O646     5.41900   -9.67700   -1.32500
      C    C647     5.78000   -7.74600    1.48200
      C    C648     4.40400   -8.31800    1.77100
      O    O649     3.40700   -7.78700    1.24100
      O    O650     4.31100   -9.29500    2.54100
      H    H651     4.34700   -6.82700   -0.45900
      H    H652     7.15100   -7.40200   -0.11700
      H    H653     6.50300   -8.30300    2.05600
      H    H654     5.79500   -6.71500    1.80000
      N    N655     7.07900  -10.04400    0.16000
      C    C656     7.28800  -11.43300   -0.21300
      C    C657     6.46100  -12.35800    0.67400
      O    O658     6.67300  -12.41700    1.88800
      C    C659     8.77400  -11.78800   -0.09500
      C    C660     9.14200  -13.22100   -0.48200
      C    C661     8.90900  -13.45800   -1.96500
      C    C662    10.58700  -13.51100   -0.11000
      H    H663     7.60000   -9.67100    0.90000
      H    H664     6.97600  -11.55500   -1.23800
      H    H665     9.33400  -11.11300   -0.72500
      H    H666     9.07800  -11.63100    0.92800
      H    H667     8.51200  -13.90500    0.06500
      H    H668     9.49400  -12.75300   -2.53900
      H    H669     7.86200  -13.32600   -2.19000
      H    H670     9.20900  -14.46400   -2.21900
      H    H671    11.24000  -12.84200   -0.65400
      H    H672    10.82500  -14.53300   -0.36400
      H    H673    10.72000  -13.36100    0.95200
      N    N674     5.49100  -13.07100    0.08600
      C    C675     4.68300  -14.05900    0.80900
      C    C676     5.53100  -15.21300    1.34300
      O    O677     6.61900  -15.49100    0.82800
      C    C678     3.70200  -14.57400   -0.24900
      C    C679     3.69200  -13.52200   -1.30300
      C    C680     5.08100  -12.96000   -1.32300
      H    H681     4.13600  -13.60400    1.62000
      H    H682     4.05500  -15.51700   -0.63700
      H    H683     2.72400  -14.70200    0.19100
      H    H684     3.44600  -13.96100   -2.25800
      H    H685     2.98000  -12.75300   -1.04400
      H    H686     5.72200  -13.55000   -1.96400
      H    H687     5.06500  -11.92900   -1.64200
      N    N688     5.03900  -15.87100    2.38100
      C    C689     5.71400  -17.03400    2.93100
      C    C690     5.07100  -18.30200    2.38300
      O    O691     3.86000  -18.50400    2.62500
      C    C692     5.65700  -17.02300    4.46200
      C    C693     6.54500  -18.07700    5.11100
      C    C694     6.37500  -18.15100    6.61300
      O    O695     7.04800  -17.38800    7.33600
      O    O696     5.56500  -18.97900    7.08300
      O    O697     5.77000  -19.08300    1.70800
      H    H698     4.20300  -15.56900    2.78700
      H    H699     6.74600  -17.00100    2.61500
      H    H700     5.96700  -16.05100    4.81600
      H    H701     4.64000  -17.20300    4.77400
      H    H702     6.30300  -19.04100    4.69100
      H    H703     7.57600  -17.84000    4.89200
