# CIF file generated by openbabel 2.3.2, see http://openbabel.sf.net
data_I
_chemical_name_common '../proteins/pdb/2O7G.pdb'
_cell_length_a 85.173
_cell_length_b 85.173
_cell_length_c 79.554
_cell_angle_alpha 90
_cell_angle_beta 90
_cell_angle_gamma 120
_space_group_name_H-M_alt 'P 61'
_space_group_name_Hall 'P 61'
loop_
    _symmetry_equiv_pos_as_xyz
    'x,y,z'
    '-y,x-y,1/3+z'
    '-x+y,-x,2/3+z'
    '-x,-y,1/2+z'
    'y,-x+y,5/6+z'
    'x-y,x,1/6+z'
loop_
    _atom_site_type_symbol
    _atom_site_label
    _atom_site_Cartn_x
    _atom_site_Cartn_y
    _atom_site_Cartn_z
      N    N1   -33.56200  -15.03300   -7.05700
      C    C2   -33.20600  -16.38200   -7.48100
      C    C3   -31.91400  -16.38200   -8.29100
      O    O4   -31.07100  -17.26500   -8.13400
      C    C5   -34.32600  -17.02400   -8.31900
      O    O6   -35.35600  -17.51300   -7.45100
      C    C7   -33.77800  -18.17700   -9.14700
      N    N8   -31.76500  -15.38500   -9.15800
      C    C9   -30.46900  -14.75600   -9.38700
      C    C10   -30.05300  -13.90400   -8.19300
      O    O11   -28.86700  -13.79400   -7.88000
      C    C12   -30.50500  -13.91500  -10.65400
      N    N13   -31.03400  -13.30200   -7.53000
      C    C14   -30.80700  -12.65800   -6.24100
      C    C15   -30.33700  -13.66600   -5.19700
      O    O16   -29.50400  -13.35100   -4.34700
      C    C17   -32.07800  -11.95700   -5.76100
      O    O18   -31.98100  -11.60700   -4.39100
      N    N19   -30.87700  -14.87800   -5.26700
      C    C20   -30.36900  -15.98200   -4.48400
      C    C21   -28.98400  -16.45500   -4.78200
      O    O22   -28.27700  -16.83800   -3.91100
      C    C23   -31.35400  -17.12600   -4.44500
      C    C24   -32.34200  -16.97900   -3.33100
      O    O25   -32.11200  -16.11100   -2.47900
      O    O26   -33.34400  -17.71300   -3.29400
      N    N27   -28.63900  -16.48200   -6.04200
      C    C28   -27.27300  -16.54100   -6.46000
      C    C29   -26.36300  -15.44400   -6.02900
      O    O30   -25.23300  -15.67600   -5.77300
      C    C31   -27.21300  -16.65400   -7.94900
      C    C32   -26.75900  -17.98300   -8.40900
      O    O33   -27.18200  -19.01200   -7.88400
      O    O34   -25.96000  -17.98700   -9.33300
      N    N35   -26.84200  -14.23000   -5.98900
      C    C36   -26.09200  -13.14400   -5.45400
      C    C37   -25.84700  -13.21100   -3.97900
      O    O38   -24.79300  -12.87600   -3.55000
      C    C39   -26.76400  -11.84700   -5.79000
      C    C40   -26.71100  -11.45100   -7.20300
      C    C41   -25.35100  -11.24300   -7.71800
      O    O42   -25.16100  -11.52200   -8.88400
      O    O43   -24.47600  -10.77400   -7.00700
      N    N44   -26.80600  -13.66500   -3.19600
      C    C45   -26.57600  -13.80600   -1.73700
      C    C46   -25.48600  -14.84800   -1.48300
      O    O47   -24.52200  -14.60400   -0.71200
      C    C48   -27.81900  -14.21300   -1.02900
      N    N49   -25.64100  -15.99800   -2.15700
      C    C50   -24.69600  -17.05900   -2.03600
      C    C51   -23.32500  -16.57800   -2.42600
      O    O52   -22.37000  -16.84600   -1.70900
      C    C53   -25.10100  -18.27800   -2.86200
      C    C54   -23.94100  -19.27500   -2.97200
      C    C55   -26.32300  -18.90800   -2.25400
      N    N56   -23.20600  -15.86900   -3.55100
      C    C57   -21.88900  -15.32700   -3.91100
      C    C58   -21.39000  -14.31800   -2.84300
      O    O59   -20.20800  -14.32900   -2.48300
      C    C60   -21.89900  -14.70200   -5.30600
      O    O61   -22.19900  -15.72800   -6.24300
      C    C62   -20.54100  -14.05600   -5.65300
      N    N63   -22.28400  -13.45200   -2.33900
      C    C64   -21.87400  -12.50300   -1.31400
      C    C65   -21.41100  -13.23400   -0.02600
      O    O66   -20.37100  -12.86000    0.51800
      C    C67   -22.95200  -11.49500   -1.01600
      N    N68   -22.13100  -14.28900    0.39400
      C    C69   -21.69300  -15.16000    1.50300
      C    C70   -20.27200  -15.73300    1.26800
      O    O71   -19.42600  -15.79400    2.18100
      C    C72   -22.70200  -16.32700    1.75100
      C    C73   -24.06900  -15.98400    2.37500
      C    C74   -25.02300  -17.18000    2.44400
      C    C75   -23.94400  -15.30800    3.76400
      N    N76   -20.02600  -16.16300    0.03100
      C    C77   -18.79700  -16.81600   -0.27000
      C    C78   -17.67700  -15.79700   -0.12300
      O    O79   -16.59900  -16.12300    0.38100
      C    C80   -18.84100  -17.40600   -1.63400
      N    N81   -17.96300  -14.56100   -0.54000
      C    C82   -16.95000  -13.50300   -0.56700
      C    C83   -16.59700  -13.08500    0.83200
      O    O84   -15.41900  -12.90500    1.15400
      C    C85   -17.39000  -12.28200   -1.36600
      C    C86   -17.08300  -12.45300   -2.84500
      C    C87   -17.68900  -11.24700   -3.59500
      C    C88   -15.55500  -12.62900   -3.10200
      N    N89   -17.61100  -12.97000    1.66800
      C    C90   -17.37800  -12.63800    3.04000
      C    C91   -16.65000  -13.79900    3.80000
      O    O92   -15.69600  -13.54300    4.58800
      C    C93   -18.67200  -12.26500    3.70500
      O    O94   -18.39400  -12.24300    5.08900
      N    N95   -17.06500  -15.04900    3.54300
      C    C96   -16.36700  -16.20700    4.08200
      C    C97   -14.90900  -16.23900    3.62400
      O    O98   -14.04600  -16.45100    4.43600
      C    C99   -17.05900  -17.48700    3.70300
      N    N100   -14.62500  -16.05100    2.33800
      C    C101   -13.24200  -15.89200    1.87000
      C    C102   -12.44100  -14.84700    2.69900
      O    O103   -11.27000  -15.00500    2.90200
      C    C104   -13.23300  -15.49700    0.39500
      N    N105   -13.07200  -13.77700    3.16300
      C    C106   -12.38500  -12.80700    3.98200
      C    C107   -12.31400  -13.18800    5.45400
      O    O108   -12.02000  -12.34700    6.27100
      C    C109   -13.04100  -11.42700    3.85600
      C    C110   -12.58800  -10.67500    2.64100
      C    C111   -13.78200   -9.85100    2.07600
      C    C112   -13.37100   -8.77400    1.01700
      N    N113   -11.85000   -8.61200    0.84100
      N    N114   -12.58600  -14.42200    5.82200
      C    C115   -12.43100  -14.80900    7.21000
      C    C116   -13.67000  -14.68000    8.06800
      O    O117   -13.57300  -14.81200    9.27700
      N    N118   -14.84200  -14.43200    7.49000
      C    C119   -16.08000  -14.45000    8.26800
      C    C120   -16.67000  -15.88200    8.43900
      O    O121   -17.22700  -16.46900    7.50700
      C    C122   -17.12800  -13.50000    7.66300
      C    C123   -18.30600  -13.28500    8.59700
      O    O124   -19.07900  -14.13800    8.90900
      N    N125   -18.39400  -12.16300    9.07600
      N    N126   -16.57200  -16.43800    9.63700
      C    C127   -17.11000  -17.75100    9.91600
      C    C128   -18.62900  -17.86200    9.79500
      O    O129   -19.13200  -18.92900    9.35400
      N    N130   -19.37800  -16.78600   10.16500
      C    C131   -20.84800  -16.88000   10.07600
      C    C132   -21.34800  -16.87700    8.61400
      O    O133   -22.39800  -17.46200    8.27000
      C    C134   -21.61100  -15.85500   10.91000
      C    C135   -21.11600  -15.54600   12.28800
      C    C136   -22.26100  -15.33200   13.34200
      N    N137   -21.77400  -16.24900   14.39600
      C    C138   -21.30400  -15.97300   15.64400
      N    N139   -20.76700  -16.91300   16.38500
      N    N140   -21.37400  -14.79900   16.21900
      N    N141   -20.57400  -16.21300    7.76800
      C    C142   -20.80200  -16.20200    6.35600
      C    C143   -20.54400  -17.62500    5.85400
      O    O144   -21.41400  -18.19000    5.16300
      C    C145   -19.90200  -15.16000    5.66200
      N    N146   -19.40600  -18.23000    6.23700
      C    C147   -19.09200  -19.58400    5.79600
      C    C148   -20.17900  -20.55000    6.23900
      O    O149   -20.66000  -21.36100    5.47200
      C    C150   -17.82400  -20.04100    6.42800
      C    C151   -16.78900  -20.81900    5.63300
      C    C152   -16.39600  -21.88400    6.35200
      C    C153   -17.20500  -21.43000    4.42000
      N    N154   -20.58500  -20.45600    7.48500
      C    C155   -21.57700  -21.35800    7.94700
      C    C156   -22.85900  -21.24500    7.11400
      O    O157   -23.41100  -22.26500    6.65500
      C    C158   -21.85100  -21.08500    9.42000
      C    C159   -22.95900  -21.91200    9.99500
      C    C160   -23.23100  -21.55600   11.46300
      O    O161   -22.58500  -20.69500   12.07200
      O    O162   -24.08800  -22.15000   12.07200
      N    N163   -23.34300  -20.00600    6.96500
      C    C164   -24.57900  -19.68600    6.24400
      C    C165   -24.46800  -20.17000    4.78600
      O    O166   -25.37800  -20.79200    4.28600
      C    C167   -24.83600  -18.19100    6.31900
      N    N168   -23.33000  -19.93800    4.14400
      C    C169   -23.08900  -20.42400    2.80600
      C    C170   -23.27600  -21.93200    2.68900
      O    O171   -23.87200  -22.43000    1.69900
      C    C172   -21.67100  -20.05500    2.42900
      C    C173   -21.19800  -20.64200    1.13600
      C    C174   -21.52600  -20.04100   -0.07800
      C    C175   -20.34200  -21.76100    1.13700
      C    C176   -21.04400  -20.56400   -1.27700
      C    C177   -19.86000  -22.32000   -0.06500
      C    C178   -20.21000  -21.71600   -1.27700
      N    N179   -22.76000  -22.67400    3.67100
      C    C180   -22.89500  -24.13600    3.66300
      C    C181   -24.33100  -24.56800    3.83900
      O    O182   -24.82100  -25.42300    3.10600
      C    C183   -22.03700  -24.79900    4.70700
      C    C184   -20.55500  -24.70600    4.30600
      C    C185   -22.46700  -26.25900    4.90300
      C    C186   -19.61700  -24.99500    5.43800
      N    N187   -25.02800  -23.95900    4.78400
      C    C188   -26.47500  -24.13900    4.91500
      C    C189   -27.19400  -23.81800    3.61100
      O    O190   -28.03500  -24.59100    3.13400
      C    C191   -27.00000  -23.27000    6.02800
      C    C192   -26.64200  -23.82200    7.38400
      C    C193   -27.17400  -22.96200    8.54000
      C    C194   -27.37300  -23.91400    9.74900
      N    N195   -27.67000  -23.23600   11.07700
      N    N196   -26.83200  -22.70900    2.99400
      C    C197   -27.54100  -22.26900    1.81900
      C    C198   -27.31300  -23.17200    0.61400
      O    O199   -28.15200  -23.22200   -0.22400
      C    C200   -27.17700  -20.82200    1.48000
      N    N201   -26.19600  -23.88200    0.52800
      C    C202   -25.89900  -24.62100   -0.69100
      C    C203   -25.93800  -26.11300   -0.50500
      O    O204   -25.85200  -26.84600   -1.49800
      C    C205   -24.54100  -24.22200   -1.28100
      O    O206   -23.55600  -24.38700   -0.27200
      C    C207   -24.54400  -22.75200   -1.67200
      N    N208   -26.06200  -26.57600    0.73800
      C    C209   -25.93800  -28.01900    1.01400
      C    C210   -26.86100  -28.89800    0.12900
      O    O211   -26.51400  -29.97400   -0.34200
      C    C212   -26.32000  -28.24300    2.45800
      C    C213   -25.67200  -29.44600    3.10500
      C    C214   -25.51300  -29.22300    4.64300
      O    O215   -26.35500  -28.52900    5.27000
      N    N216   -24.44100  -29.81400    5.25300
      N    N217   -28.06100  -28.41400   -0.07200
      C    C218   -29.08200  -29.13000   -0.78000
      C    C219   -28.74500  -29.24700   -2.26500
      O    O220   -28.86000  -30.33900   -2.84300
      C    C221   -30.38300  -28.35000   -0.59500
      C    C222   -31.66600  -29.09200   -0.97100
      C    C223   -32.11300  -30.12100    0.09800
      O    O224   -31.51400  -31.22700    0.25700
      N    N225   -33.19600  -29.77500    0.81000
      N    N226   -28.36400  -28.12800   -2.88200
      C    C227   -27.82800  -28.17400   -4.23700
      C    C228   -26.64300  -29.10600   -4.41400
      O    O229   -26.57000  -29.76400   -5.43800
      C    C230   -27.35900  -26.81800   -4.72100
      C    C231   -28.48200  -25.81500   -4.82100
      O    O232   -29.63900  -26.20100   -5.15600
      O    O233   -28.20900  -24.62300   -4.53200
      N    N234   -25.69800  -29.14000   -3.47300
      C    C235   -24.54200  -29.99100   -3.62300
      C    C236   -25.00100  -31.43300   -3.55200
      O    O237   -24.62700  -32.27800   -4.37600
      C    C238   -23.43600  -29.67300   -2.59900
      C    C239   -22.24000  -30.59400   -2.76200
      C    C240   -22.97100  -28.27000   -2.76700
      N    N241   -25.85900  -31.71700   -2.58900
      C    C242   -26.33500  -33.08500   -2.44100
      C    C243   -27.06500  -33.53900   -3.68600
      O    O244   -26.69400  -34.51200   -4.24200
      C    C245   -27.20500  -33.21100   -1.22200
      C    C246   -27.44700  -34.63400   -0.78800
      C    C247   -26.71900  -35.36200    0.12700
      C    C248   -28.50700  -35.48500   -1.22700
      N    N249   -27.25900  -36.61300    0.26900
      C    C250   -28.36000  -36.71600   -0.54500
      C    C251   -29.57200  -35.32600   -2.13200
      C    C252   -29.24400  -37.79900   -0.74400
      C    C253   -30.45300  -36.40000   -2.34200
      C    C254   -30.27100  -37.62900   -1.65000
      N    N255   -28.07100  -32.83400   -4.16300
      C    C256   -28.70300  -33.26000   -5.41200
      C    C257   -27.77700  -33.49300   -6.63600
      O    O258   -27.86100  -34.51400   -7.31600
      C    C259   -29.78700  -32.28400   -5.78900
      C    C260   -30.99400  -32.36000   -4.86400
      C    C261   -32.02200  -31.49600   -5.53100
      N    N262   -32.75900  -30.84000   -4.49800
      C    C263   -32.75000  -29.54500   -4.17000
      N    N264   -32.03600  -28.60400   -4.82200
      N    N265   -33.51400  -29.19500   -3.13100
      N    N266   -26.87800  -32.56000   -6.89500
      C    C267   -25.88200  -32.73100   -7.94500
      C    C268   -25.03200  -34.02400   -7.74300
      O    O269   -24.83600  -34.88600   -8.61400
      C    C270   -25.03000  -31.48800   -7.90900
      C    C271   -24.09500  -31.36700   -9.02000
      C    C272   -24.55500  -31.15500  -10.31700
      C    C273   -22.71900  -31.42100   -8.77000
      C    C274   -23.63400  -31.03800  -11.39900
      C    C275   -21.78700  -31.31600   -9.78900
      C    C276   -22.24700  -31.11300  -11.14200
      N    N277   -24.52000  -34.16600   -6.55400
      C    C278   -23.65200  -35.26200   -6.24500
      C    C279   -24.40200  -36.64900   -6.25100
      O    O280   -23.85100  -37.67400   -6.71700
      C    C281   -22.97500  -34.85300   -4.96100
      C    C282   -23.18700  -35.81900   -3.87700
      C    C283   -21.59000  -34.57200   -5.24700
      N    N284   -25.67300  -36.65500   -5.79600
      C    C285   -26.55000  -37.84500   -5.70400
      C    C286   -26.67200  -38.42300   -7.07700
      O    O287   -27.18000  -39.52700   -7.35500
      C    C288   -27.88700  -37.44500   -5.29800
      N    N289   -26.15700  -37.70600   -8.00600
      C    C290   -26.74600  -37.88100   -9.20100
      C    C291   -25.71500  -38.03300  -10.30800
      O    O292   -25.93200  -38.79300  -11.24200
      C    C293   -27.46600  -36.65500   -9.15800
      C    C294   -27.59600  -36.26500  -10.37600
      C    C295   -26.93300  -35.16500  -10.77500
      C    C296   -28.32800  -37.04000  -11.20700
      C    C297   -26.98400  -34.82100  -11.91200
      C    C298   -28.42100  -36.71400  -12.38600
      C    C299   -27.72000  -35.59200  -12.71900
      O    O300   -27.70500  -35.15100  -13.92600
      N    N301   -24.58700  -37.33900  -10.15900
      C    C302   -23.34300  -37.80700  -10.69400
      C    C303   -22.97700  -39.20800  -10.16600
      O    O304   -22.38100  -39.97900  -10.92900
      C    C305   -22.26800  -36.80200  -10.36500
      C    C306   -21.88500  -35.78900  -11.45000
      C    C307   -22.84400  -35.60700  -12.61000
      C    C308   -21.52700  -34.48800  -10.81500
      N    N309   -23.30700  -39.56900   -8.90700
      C    C310   -23.22200  -41.00200   -8.53800
      C    C311   -24.53200  -41.64800   -8.09800
      O    O312   -25.30800  -42.11500   -8.96200
      C    C313   -22.07900  -41.36200   -7.59800
      O    O314   -21.96100  -40.41200   -6.60300
      N    N315   -24.79300  -41.71400   -6.79000
      C    C316   -26.07100  -42.28600   -6.34600
      C    C317   -26.46100  -41.70500   -5.00000
      O    O318   -25.59400  -41.21400   -4.24900
      C    C319   -26.03100  -43.84700   -6.30700
      C    C320   -24.85300  -44.36400   -5.51700
      O    O321   -24.95900  -44.39200   -4.27800
      O    O322   -23.79900  -44.67800   -6.12700
      N    N323   -27.76300  -41.77700   -4.70600
      C    C324   -28.32200  -41.42900   -3.40300
      C    C325   -27.47900  -42.01500   -2.23300
      O    O326   -27.22900  -41.35800   -1.21700
      C    C327   -29.82100  -41.81700   -3.33500
      C    C328   -30.34000  -41.72500   -1.91800
      C    C329   -30.64100  -40.90500   -4.23800
      N    N330   -26.98600  -43.23100   -2.38400
      C    C331   -26.25800  -43.84100   -1.28500
      C    C332   -24.94300  -43.18000   -0.91800
      O    O333   -24.59300  -43.14300    0.23600
      N    N334   -24.20200  -42.66100   -1.89900
      C    C335   -22.89100  -42.06400   -1.62500
      C    C336   -22.93900  -40.53500   -1.51100
      O    O337   -21.89400  -39.90000   -1.24900
      C    C338   -21.94500  -42.44100   -2.73300
      O    O339   -22.69900  -42.51000   -3.92300
      N    N340   -24.13500  -39.95600   -1.69600
      C    C341   -24.30200  -38.49700   -1.78200
      C    C342   -23.89000  -37.77000   -0.51200
      O    O343   -23.27000  -36.73700   -0.57100
      C    C344   -25.73000  -38.11800   -2.21100
      N    N345   -24.21400  -38.32900    0.65000
      C    C346   -23.79800  -37.75100    1.95500
      C    C347   -22.31100  -37.60200    2.08600
      O    O348   -21.85700  -36.51000    2.37800
      C    C349   -24.28600  -38.59200    3.11700
      C    C350   -25.74000  -38.43500    3.36700
      O    O351   -26.40700  -37.56400    2.78000
      O    O352   -26.24100  -39.19100    4.19100
      N    N353   -21.57200  -38.69400    1.87300
      C    C354   -20.10800  -38.68500    1.88000
      C    C355   -19.54800  -37.65700    0.92500
      O    O356   -18.64800  -36.91500    1.27600
      C    C357   -19.55000  -40.05400    1.43400
      C    C358   -19.52100  -41.06700    2.52800
      O    O359   -20.19700  -40.77400    3.51700
      N    N360   -20.04300  -37.65200   -0.30400
      C    C361   -19.51600  -36.78000   -1.32800
      C    C362   -19.88500  -35.31600   -1.05600
      O    O363   -19.07800  -34.38800   -1.30400
      C    C364   -20.01800  -37.26700   -2.68800
      C    C365   -19.21200  -38.29400   -3.52100
      C    C366   -18.10800  -38.97000   -2.79900
      C    C367   -20.13300  -39.30100   -4.09600
      N    N368   -21.08900  -35.09700   -0.51300
      C    C369   -21.46300  -33.76200   -0.07800
      C    C370   -20.50900  -33.20500    1.00300
      O    O371   -20.04800  -32.08900    0.86700
      C    C372   -22.89200  -33.70100    0.41000
      O    O373   -23.75100  -34.08300   -0.65700
      C    C374   -23.23600  -32.28000    0.83100
      N    N375   -20.19200  -33.98200    2.04300
      C    C376   -19.17900  -33.58800    3.06400
      C    C377   -17.92700  -33.06700    2.42800
      O    O378   -17.22300  -32.29200    3.05800
      C    C379   -18.75600  -34.70300    3.92400
      C    C380   -19.56100  -35.05200    5.05600
      C    C381   -18.63800  -35.35300    6.24300
      O    O382   -19.11700  -35.45500    7.36100
      N    N383   -17.30700  -35.44000    6.00700
      N    N384   -17.48300  -33.63800    1.31600
      C    C385   -16.09800  -34.00800    1.10300
      C    C386   -15.95700  -32.72600    0.18800
      O    O387   -15.06900  -31.89800    0.34800
      C    C388   -15.83400  -35.31800    0.33600
      C    C389   -14.47000  -35.38400   -0.41200
      C    C390   -13.27700  -34.95300    0.45400
      O    O391   -13.39000  -35.11800    1.68600
      O    O392   -12.21600  -34.47900   -0.04400
      N    N393   -16.94600  -32.51800   -0.67300
      C    C394   -17.13500  -31.22100   -1.33400
      C    C395   -17.03000  -30.02300   -0.39500
      O    O396   -16.24900  -29.08900   -0.66000
      C    C397   -18.47500  -31.13500   -2.06800
      O    O398   -18.63600  -32.27200   -2.90900
      C    C399   -18.52000  -29.94500   -2.93100
      N    N400   -17.75700  -30.05100    0.71800
      C    C401   -17.65700  -28.93900    1.65400
      C    C402   -16.32000  -28.81100    2.35100
      O    O403   -15.83800  -27.69100    2.59700
      C    C404   -18.78600  -28.95000    2.63800
      C    C405   -20.04700  -28.39800    2.04100
      C    C406   -21.16500  -29.21600    1.83400
      C    C407   -20.06800  -27.08200    1.55100
      C    C408   -22.29500  -28.68800    1.22100
      C    C409   -21.17900  -26.57400    0.95000
      C    C410   -22.30900  -27.36300    0.78400
      N    N411   -15.70900  -29.94900    2.70400
      C    C412   -14.38100  -29.91900    3.26900
      C    C413   -13.39300  -29.17100    2.31000
      O    O414   -12.81300  -28.13100    2.68100
      C    C415   -14.02600  -31.34700    3.54700
      C    C416   -14.04700  -31.89600    4.99000
      C    C417   -14.55600  -31.07300    6.01200
      C    C418   -14.73900  -33.11400    5.14200
      N    N419   -13.31000  -29.63300    1.04700
      C    C420   -12.53600  -28.92900    0.01200
      C    C421   -13.04300  -27.53000   -0.15500
      O    O422   -12.24600  -26.63700   -0.31400
      C    C423   -12.53600  -29.61200   -1.35900
      C    C424   -12.72600  -31.08400   -1.28900
      C    C425   -11.58300  -31.91700   -1.71900
      N    N426   -11.59700  -32.32400   -3.10400
      C    C427   -11.63500  -33.55400   -3.61600
      N    N428   -11.56200  -33.66400   -4.92200
      N    N429   -11.76100  -34.63700   -2.90300
      N    N430   -14.35700  -27.31500   -0.11700
      C    C431   -14.81700  -25.91900   -0.22100
      C    C432   -14.17600  -25.07600    0.88400
      O    O433   -13.63200  -24.00200    0.59600
      C    C434   -16.39400  -25.75500   -0.24200
      N    N435   -14.22300  -25.56300    2.12800
      C    C436   -13.70500  -24.80900    3.27800
      C    C437   -12.22500  -24.45800    3.03900
      O    O438   -11.79100  -23.31000    3.20000
      C    C439   -13.92500  -25.56100    4.59200
      C    C440   -15.38000  -25.48500    5.01100
      C    C441   -13.08400  -24.97300    5.69800
      C    C442   -15.80000  -26.72000    5.85900
      N    N443   -11.49600  -25.44900    2.56500
      C    C444   -10.10100  -25.27200    2.26700
      C    C445    -9.78000  -24.34100    1.10800
      O    O446    -8.65900  -23.79000    1.08100
      N    N447   -10.69300  -24.15600    0.14500
      C    C448   -10.41200  -23.30000   -1.03600
      C    C449   -11.02600  -21.89800   -0.92400
      O    O450   -10.61200  -20.94400   -1.58600
      C    C451   -10.86400  -23.96000   -2.29400
      N    N452   -11.93200  -21.70800   -0.00400
      C    C453   -12.73400  -20.54000   -0.07100
      C    C454   -12.00300  -19.25500    0.08100
      O    O455   -12.45600  -18.24600   -0.36300
      C    C456   -14.02200  -20.63300    0.71900
      C    C457   -15.05600  -19.70200    0.14900
      C    C458   -13.83000  -20.34800    2.11200
      C    C459   -16.37300  -19.93900    0.67000
      N    N460   -10.84400  -19.28000    0.69000
      C    C461   -10.08500  -18.06600    0.84400
      C    C462    -9.57500  -17.52700   -0.45300
      O    O463    -9.25200  -16.37600   -0.55300
      C    C464    -8.95100  -18.52500    1.70000
      C    C465    -9.53400  -19.48100    2.51600
      C    C466   -10.44600  -20.24800    1.70200
      N    N467    -9.52000  -18.35300   -1.46100
      C    C468    -9.11900  -17.90100   -2.75700
      C    C469   -10.28300  -17.71500   -3.70500
      O    O470   -10.11000  -17.66700   -4.88700
      C    C471    -8.14400  -18.89800   -3.33600
      C    C472    -6.92100  -19.05400   -2.52400
      C    C473    -6.10300  -20.20600   -2.98500
      N    N474    -4.93900  -20.43900   -2.13200
      C    C475    -4.96300  -21.11000   -0.98500
      N    N476    -6.10300  -21.61100   -0.54700
      N    N477    -3.84800  -21.28300   -0.27900
      N    N478   -11.48100  -17.62600   -3.18600
      C    C479   -12.59400  -17.33800   -4.02800
      C    C480   -12.65100  -15.85800   -4.16500
      O    O481   -12.57200  -15.15200   -3.19900
      C    C482   -13.87500  -17.85800   -3.40900
      C    C483   -15.08100  -17.50400   -4.16300
      C    C484   -15.33400  -18.06600   -5.34200
      C    C485   -15.94600  -16.57500   -3.70300
      C    C486   -16.40600  -17.74400   -6.02300
      C    C487   -17.02800  -16.24700   -4.41100
      C    C488   -17.24600  -16.83400   -5.56900
      N    N489   -12.77100  -15.37900   -5.38200
      C    C490   -12.84600  -13.91800   -5.62000
      C    C491   -14.01300  -13.49200   -6.53000
      O    O492   -14.12300  -12.29800   -6.86500
      C    C493   -11.54300  -13.38600   -6.21300
      O    O494   -11.33800  -14.08200   -7.44400
      N    N495   -14.87600  -14.43700   -6.90900
      C    C496   -16.06600  -14.14300   -7.74000
      C    C497   -15.74000  -13.95400   -9.23700
      O    O498   -16.44800  -13.25500   -9.97300
      C    C499   -16.95000  -12.97200   -7.16100
      N    N500   -14.69100  -14.62600   -9.69200
      C    C501   -14.48100  -14.69900  -11.13300
      C    C502   -15.69200  -15.39800  -11.75000
      O    O503   -15.98300  -15.20900  -12.89200
      C    C504   -13.10500  -15.30100  -11.50400
      C    C505   -11.94300  -14.78700  -10.52700
      C    C506   -10.55700  -14.32200  -11.18100
      N    N507   -10.23200  -14.95900  -12.48600
      C    C508   -10.06500  -16.27600  -12.69800
      N    N509   -10.20100  -17.16600  -11.71000
      N    N510    -9.76600  -16.71700  -13.91200
      N    N511   -16.43800  -16.15200  -10.95300
      C    C512   -17.69700  -16.80600  -11.36700
      C    C513   -18.63800  -16.76900  -10.16100
      O    O514   -18.22100  -16.31100   -9.10700
      C    C515   -17.45100  -18.27300  -11.80000
      O    O516   -17.30800  -19.14600  -10.67800
      N    N517   -19.88400  -17.24400  -10.27700
      C    C518   -20.68300  -17.32500   -9.07000
      C    C519   -20.12000  -18.41600   -8.08700
      O    O520   -19.49100  -19.40000   -8.51600
      C    C521   -22.12900  -17.59800   -9.41800
      O    O522   -22.26400  -18.89800   -9.94100
      N    N523   -20.37100  -18.24500   -6.79200
      C    C524   -20.01300  -19.23100   -5.77600
      C    C525   -20.65400  -20.58200   -6.07000
      O    O526   -20.02000  -21.61500   -5.88800
      C    C527   -20.41000  -18.75000   -4.39600
      N    N528   -21.89900  -20.58500   -6.53500
      C    C529   -22.56800  -21.83600   -6.95000
      C    C530   -21.80400  -22.59500   -8.06300
      O    O531   -21.69200  -23.81600   -7.97900
      C    C532   -23.97600  -21.54800   -7.42700
      C    C533   -24.96900  -22.66500   -7.28500
      C    C534   -26.36200  -21.98700   -6.95100
      N    N535   -26.97500  -22.39400   -5.65500
      C    C536   -27.82000  -21.64900   -4.91000
      N    N537   -28.17000  -20.39400   -5.26200
      N    N538   -28.32100  -22.15800   -3.77200
      N    N539   -21.27400  -21.90000   -9.07100
      C    C540   -20.51100  -22.58800  -10.09000
      C    C541   -19.17700  -23.11100   -9.54200
      O    O542   -18.80700  -24.26800   -9.75900
      C    C543   -20.20000  -21.63300  -11.21100
      O    O544   -21.42300  -21.21900  -11.79600
      C    C545   -19.25900  -22.26200  -12.27000
      N    N546   -18.45400  -22.23200   -8.86600
      C    C547   -17.24900  -22.56900   -8.17100
      C    C548   -17.43500  -23.84100   -7.30000
      O    O549   -16.60500  -24.79300   -7.33300
      C    C550   -16.89500  -21.36700   -7.30800
      C    C551   -15.71400  -21.54200   -6.44200
      C    C552   -14.40600  -21.37900   -6.79700
      C    C553   -15.71700  -21.86100   -5.04100
      N    N554   -13.61500  -21.57900   -5.71600
      C    C555   -14.38000  -21.87600   -4.62100
      C    C556   -16.72100  -22.09800   -4.10000
      C    C557   -14.00100  -22.16100   -3.29100
      C    C558   -16.34400  -22.38400   -2.75600
      C    C559   -14.99200  -22.42300   -2.37700
      N    N560   -18.53700  -23.86200   -6.55000
      C    C561   -18.77400  -24.91200   -5.59800
      C    C562   -19.09300  -26.19800   -6.30100
      O    O563   -18.59800  -27.27000   -5.90300
      C    C564   -19.91100  -24.54400   -4.66600
      C    C565   -20.23900  -25.54800   -3.57000
      C    C566   -19.04000  -25.83500   -2.69600
      C    C567   -21.40900  -25.03200   -2.77800
      N    N568   -19.93800  -26.11900   -7.33400
      C    C569   -20.27300  -27.31300   -8.13800
      C    C570   -19.07800  -27.80200   -8.93400
      O    O571   -18.94900  -28.99900   -9.11500
      C    C572   -21.52300  -27.13200   -8.99500
      C    C573   -22.80600  -26.70400   -8.21700
      C    C574   -23.99900  -26.56100   -9.17700
      C    C575   -23.15000  -27.60500   -7.06000
      N    N576   -18.15800  -26.90700   -9.30700
      C    C577   -16.88100  -27.33200   -9.90900
      C    C578   -16.09000  -28.18700   -8.90700
      O    O579   -15.48600  -29.19400   -9.26200
      C    C580   -16.09500  -26.16200  -10.37500
      N    N581   -16.12600  -27.82300   -7.63500
      C    C582   -15.44900  -28.65000   -6.63800
      C    C583   -16.13800  -29.97800   -6.55800
      O    O584   -15.45600  -31.00600   -6.62100
      C    C585   -15.39600  -28.01600   -5.26900
      C    C586   -14.55100  -26.73500   -5.37700
      C    C587   -14.87200  -29.03900   -4.24600
      C    C588   -14.69600  -25.80500   -4.27800
      N    N589   -17.46500  -29.96800   -6.44400
      C    C590   -18.26000  -31.20200   -6.43700
      C    C591   -17.92700  -32.17400   -7.57200
      O    O592   -17.88800  -33.37600   -7.34800
      C    C593   -19.73900  -30.90000   -6.46300
      N    N594   -17.71800  -31.66800   -8.78300
      C    C595   -17.26400  -32.52300   -9.85500
      C    C596   -15.99500  -33.26000   -9.63300
      O    O597   -15.92700  -34.47600   -9.92400
      C    C598   -17.02500  -31.74700  -11.07100
      C    C599   -18.20700  -31.92400  -11.76600
      C    C600   -18.61500  -30.66800  -12.13900
      N    N601   -18.16500  -30.36200  -13.44600
      C    C602   -17.88000  -29.13200  -13.81200
      N    N603   -17.90900  -28.05600  -13.00500
      N    N604   -17.56100  -28.97600  -15.02600
      N    N605   -14.98800  -32.52500   -9.14300
      C    C606   -13.73200  -33.12300   -8.89000
      C    C607   -13.97400  -34.22000   -7.86900
      O    O608   -13.45800  -35.32800   -8.02400
      C    C609   -12.72900  -32.07200   -8.44100
      C    C610   -12.32500  -31.11000   -9.52800
      N    N611   -11.12100  -31.20200  -10.19900
      C    C612   -12.96300  -30.03200  -10.05300
      C    C613   -11.03500  -30.22800  -11.09200
      N    N614   -12.14500  -29.50800  -11.02900
      N    N615   -14.82300  -33.95900   -6.87600
      C    C616   -15.00000  -34.90000   -5.77100
      C    C617   -15.59400  -36.20300   -6.30000
      O    O618   -15.11100  -37.29500   -6.05400
      C    C619   -15.85400  -34.30600   -4.61000
      C    C620   -16.25000  -35.39400   -3.62900
      C    C621   -15.09700  -33.21100   -3.88200
      N    N622   -16.65400  -36.08300   -7.05800
      C    C623   -17.20100  -37.25600   -7.72300
      C    C624   -16.21000  -37.94700   -8.71200
      O    O625   -16.11000  -39.17000   -8.70200
      C    C626   -18.54900  -36.95100   -8.37000
      C    C627   -19.12800  -38.22900   -8.99500
      C    C628   -19.46300  -36.39100   -7.32900
      N    N629   -15.48400  -37.16500   -9.52600
      C    C630   -14.45600  -37.71300  -10.40700
      C    C631   -13.47700  -38.58700   -9.59000
      O    O632   -13.37900  -39.78800   -9.87600
      C    C633   -13.74800  -36.60300  -11.19900
      N    N634   -12.81700  -38.04100   -8.55500
      C    C635   -11.99500  -38.87300   -7.67200
      C    C636   -12.69100  -40.12200   -7.14400
      O    O637   -12.10800  -41.18100   -7.13700
      C    C638   -11.49400  -38.07700   -6.50700
      C    C639   -10.77700  -36.82400   -6.91100
      O    O640   -10.43000  -36.61100   -8.09600
      O    O641   -10.55300  -36.01200   -5.99800
      N    N642   -13.94000  -40.00900   -6.70800
      C    C643   -14.66200  -41.13500   -6.09900
      C    C644   -14.80000  -42.26400   -7.09500
      O    O645   -14.96200  -43.41100   -6.71600
      C    C646   -16.04900  -40.69000   -5.63300
      C    C647   -16.99600  -41.80700   -5.27800
      N    N648   -16.94600  -42.48300   -4.07400
      C    C649   -18.07900  -42.29600   -5.92600
      C    C650   -17.93500  -43.36000   -4.01200
      N    N651   -18.63200  -43.27300   -5.13000
      N    N652   -14.76000  -41.96700   -8.38100
      C    C653   -14.88600  -43.06200   -9.31700
      C    C654   -13.55800  -43.40900   -9.98800
      O    O655   -13.57200  -44.05300  -10.97200
      C    C656   -16.05900  -42.85800  -10.35500
      C    C657   -15.83100  -41.63800  -11.25900
      C    C658   -17.48500  -42.80800   -9.66100
      C    C659   -17.09400  -41.20300  -11.96300
      N    N660   -12.41000  -42.94900   -9.48400
      C    C661   -11.11800  -43.31800  -10.09500
      C    C662   -10.55400  -44.48600   -9.33400
      O    O663   -11.20100  -45.50900   -9.25900
      C    C664   -10.11800  -42.16000  -10.09600
      C    C665    -9.11100  -42.20000   -8.92500
      C    C666    -8.62400  -40.80400   -8.51600
      N    N667    -8.08000  -40.02500   -9.64700
      C    C668    -8.72300  -39.03900  -10.29800
      N    N669    -9.96000  -38.67600   -9.98100
      N    N670    -8.12700  -38.39900  -11.28800
