# CIF file generated by openbabel 2.3.2, see http://openbabel.sf.net
data_I
_chemical_name_common '../proteins/pdb/3G5O.pdb'
_cell_length_a 75.54
_cell_length_b 79.481
_cell_length_c 86.278
_cell_angle_alpha 90
_cell_angle_beta 90
_cell_angle_gamma 90
_space_group_name_H-M_alt 'P 21 21 21'
_space_group_name_Hall 'P 2ac 2ab'
loop_
    _symmetry_equiv_pos_as_xyz
    'x,y,z'
    '1/2-x,-y,1/2+z'
    '-x,1/2+y,1/2-z'
    '1/2+x,1/2-y,-z'
loop_
    _atom_site_type_symbol
    _atom_site_label
    _atom_site_Cartn_x
    _atom_site_Cartn_y
    _atom_site_Cartn_z
      N    N1    -1.39700   -3.06700   29.28400
      C    C2    -1.82100   -2.79700   27.87400
      C    C3    -1.76500   -1.29500   27.53000
      O    O4    -2.08400   -0.45000   28.36800
      C    C5    -3.21600   -3.37100   27.61900
      N    N6    -1.33900   -0.96000   26.31400
      C    C7    -1.17600    0.45000   25.90600
      C    C8    -1.81400    0.75500   24.55000
      O    O9    -1.11200    0.96200   23.55300
      C    C10     0.30500    0.85400   25.90400
      C    C11     0.86500    1.20100   27.28300
      S    S12     2.66300    1.27900   27.26800
      C    C13     3.08700   -0.40700   27.75700
      N    N14    -3.14300    0.79900   24.53300
      C    C15    -3.92700    0.91400   23.31200
      C    C16    -4.09600    2.35500   22.79000
      O    O17    -4.27800    3.29900   23.55300
      C    C18    -5.29400    0.24400   23.50900
      C    C19    -5.24500   -1.24700   23.97800
      C    C20    -5.11600   -2.22400   22.79600
      N    N21    -5.13800   -3.63300   23.20100
      C    C22    -4.05100   -4.36300   23.46800
      N    N23    -2.84600   -3.81800   23.39000
      N    N24    -4.16100   -5.64000   23.82400
      N    N25    -4.03600    2.50400   21.47200
      C    C26    -4.27900    3.76000   20.80100
      C    C27    -5.56200    3.57200   20.01200
      O    O28    -5.64500    2.71000   19.14600
      C    C29    -3.10600    4.13900   19.88300
      C    C30    -1.79700    4.21900   20.69500
      C    C31    -3.38300    5.43900   19.15900
      C    C32    -0.49000    4.27600   19.84100
      N    N33    -6.56900    4.37300   20.32600
      C    C34    -7.90600    4.15000   19.81900
      C    C35    -8.58200    5.41600   19.33200
      O    O36    -8.44100    6.47400   19.94800
      C    C37    -8.78800    3.49500   20.89400
      C    C38    -8.56100    2.02000   21.25600
      C    C39    -9.49500    1.68700   22.38000
      C    C40    -8.82000    1.05500   20.07000
      N    N41    -9.35200    5.30400   18.23500
      C    C42   -10.15300    6.45300   17.81000
      C    C43   -11.31000    6.69300   18.76500
      O    O44   -11.78600    5.76100   19.39500
      C    C45   -10.67700    6.04300   16.41800
      C    C46   -10.51500    4.54100   16.34800
      C    C47    -9.39100    4.17600   17.26700
      N    N48   -11.74900    7.94200   18.85100
      C    C49   -12.83100    8.33400   19.71600
      C    C50   -14.12900    7.58900   19.36200
      O    O51   -14.90400    7.24600   20.26200
      C    C52   -12.99300    9.87600   19.67700
      C    C53   -13.42700   10.43800   21.02300
      C    C54   -13.90700   10.32500   18.52700
      C    C55   -13.39300   11.98100   21.05700
      N    N56   -14.33600    7.29900   18.06300
      C    C57   -15.48600    6.49700   17.60100
      C    C58   -15.53700    5.09500   18.21500
      O    O59   -16.61300    4.57000   18.45800
      C    C60   -15.53100    6.39900   16.06700
      O    O61   -14.37700    5.73800   15.56000
      N    N62   -14.38300    4.49800   18.47800
      C    C63   -14.33900    3.20500   19.12600
      C    C64   -14.74200    3.33100   20.59400
      O    O65   -15.36300    2.41400   21.14700
      C    C66   -12.94500    2.57100   18.97500
      O    O67   -12.62600    2.45300   17.58000
      C    C68   -12.87500    1.18800   19.63100
      N    N69   -14.40100    4.46200   21.22500
      C    C70   -14.74500    4.67300   22.63800
      C    C71   -16.24400    4.95300   22.85200
      O    O72   -16.86500    4.37600   23.74100
      C    C73   -13.87800    5.77700   23.32600
      C    C74   -12.37300    5.56900   23.06700
      C    C75   -14.15500    5.83600   24.83300
      C    C76   -11.78800    4.32300   23.67600
      N    N77   -16.80600    5.83500   22.03200
      C    C78   -18.19700    6.29100   22.16400
      C    C79   -19.19200    5.13200   22.23000
      O    O80   -19.22400    4.27500   21.34700
      C    C81   -18.58800    7.20100   20.99100
      C    C82   -17.80500    8.52700   20.84200
      C    C83   -18.62600    9.53900   20.01900
      C    C84   -17.74700   10.53000   19.25500
      N    N85   -17.28200    9.99100   17.93400
      N    N86   -20.00900    5.11700   23.27600
      C    C87   -21.02700    4.07000   23.43100
      C    C88   -20.57600    2.90700   24.29800
      O    O89   -21.42900    2.18300   24.85700
      N    N90   -19.24500    2.71700   24.39200
      C    C91   -18.63800    1.76300   25.32400
      C    C92   -17.86900    2.48000   26.47000
      O    O93   -16.93200    1.93100   27.05200
      C    C94   -17.76400    0.71600   24.59300
      C    C95   -18.56200   -0.45400   23.90500
      C    C96   -17.94300   -1.82800   24.22200
      C    C97   -18.87700   -3.00000   23.87000
      N    N98   -18.59000   -3.58000   22.51500
      N    N99   -18.30300    3.68900   26.80600
      C    C100   -17.55900    4.51600   27.75500
      C    C101   -17.45300    3.80400   29.09400
      O    O102   -16.38200    3.77700   29.69600
      C    C103   -18.21600    5.89100   27.94900
      C    C104   -17.33100    7.14800   28.06700
      C    C105   -17.92100    8.11200   29.08300
      C    C106   -15.83200    6.95400   28.33300
      N    N107   -18.56800    3.21800   29.53500
      C    C108   -18.60100    2.49500   30.79300
      C    C109   -17.48700    1.46300   30.80700
      O    O110   -16.77300    1.34000   31.80300
      C    C111   -19.94700    1.77800   31.02400
      C    C112   -21.02500    2.69400   31.58100
      O    O113   -20.72700    3.71500   32.20900
      N    N114   -22.30900    2.31500   31.37000
      N    N115   -17.34800    0.72300   29.69600
      C    C116   -16.47400   -0.44800   29.66600
      C    C117   -15.02200   -0.00900   29.65500
      O    O118   -14.21000   -0.59100   30.37100
      C    C119   -16.77800   -1.33900   28.43300
      C    C120   -18.06500   -2.14900   28.62600
      C    C121   -19.30900   -1.33400   28.31200
      O    O122   -19.16100   -0.22500   27.74600
      O    O123   -20.43800   -1.79600   28.63100
      N    N124   -14.71500    1.01900   28.86900
      C    C125   -13.33400    1.53300   28.80700
      C    C126   -12.89300    2.13600   30.14400
      O    O127   -11.74500    1.92600   30.56300
      C    C128   -13.13700    2.52300   27.63700
      C    C129   -12.97400    1.83200   26.30500
      C    C130   -11.78100    1.18300   25.98600
      C    C131   -14.02400    1.79100   25.38200
      C    C132   -11.62500    0.51600   24.75800
      C    C133   -13.88100    1.13000   24.15900
      C    C134   -12.66500    0.48300   23.84100
      N    N135   -13.80100    2.88000   30.79100
      C    C136   -13.54100    3.40900   32.13500
      C    C137   -13.34200    2.26900   33.15900
      O    O138   -12.36300    2.29300   33.94100
      C    C139   -14.63200    4.40200   32.60700
      C    C140   -14.50900    4.66200   34.06800
      C    C141   -14.52400    5.71600   31.82800
      N    N142   -14.22400    1.26400   33.13000
      C    C143   -14.06300    0.09300   34.01400
      C    C144   -12.70600   -0.56300   33.80600
      O    O145   -12.07800   -0.96900   34.79700
      C    C146   -15.14000   -0.98600   33.78000
      C    C147   -16.44900   -0.70500   34.47800
      O    O148   -16.52100    0.06000   35.48300
      O    O149   -17.44500   -1.28900   34.00800
      N    N150   -12.26300   -0.67100   32.53800
      C    C151   -11.01700   -1.35900   32.18800
      C    C152    -9.75200   -0.67000   32.74700
      O    O153    -8.92000   -1.33300   33.35900
      C    C154   -10.86900   -1.56300   30.66800
      N    N155    -9.60300    0.64000   32.53600
      C    C156    -8.43300    1.32500   33.06300
      C    C157    -8.49800    1.45500   34.60500
      O    O158    -7.47000    1.47600   35.28400
      C    C159    -8.17800    2.69900   32.39200
      C    C160    -8.10600    2.54500   30.88700
      C    C161    -9.22500    3.71700   32.79800
      N    N162    -9.70700    1.51000   35.13700
      C    C163    -9.92800    1.65600   36.54700
      C    C164    -9.29000    0.55000   37.36600
      O    O165    -8.78100    0.76900   38.45900
      C    C166   -11.41900    1.56800   36.81000
      O    O167   -11.61100    1.92000   38.13300
      N    N168    -9.37100   -0.65400   36.85000
      C    C169    -8.96000   -1.82300   37.61700
      C    C170    -7.52600   -2.27900   37.28300
      O    O171    -7.02800   -3.28400   37.84000
      C    C172    -9.97500   -2.93000   37.37500
      O    O173   -10.09500   -3.15200   35.98000
      N    N174    -6.83600   -1.51300   36.43200
      C    C175    -5.54200   -1.91800   35.89500
      C    C176    -4.56400   -0.73500   35.71100
      O    O177    -4.88800    0.42500   36.00500
      C    C178    -5.71800   -2.57800   34.49400
      O    O179    -6.09600   -1.57300   33.54700
      C    C180    -6.80200   -3.72100   34.48500
      N    N181    -3.38300   -1.06200   35.19600
      C    C182    -2.41900   -0.11000   34.73700
      C    C183    -2.58000    0.24500   33.24200
      O    O184    -1.72900    0.90300   32.68800
      C    C185    -0.98900   -0.60900   35.00700
      C    C186    -0.68600   -0.88300   36.48300
      C    C187     0.70500   -1.50500   36.71000
      O    O188     0.81600   -2.63600   37.19400
      N    N189     1.75200   -0.77200   36.36200
      N    N190    -3.67100   -0.15200   32.59800
      C    C191    -3.80400    0.04900   31.15300
      C    C192    -3.97700    1.54400   30.83200
      O    O193    -4.55700    2.29300   31.62100
      C    C194    -5.03300   -0.70700   30.61800
      C    C195    -4.90500   -2.24900   30.70500
      O    O196    -3.79400   -2.79300   30.90600
      O    O197    -5.95400   -2.91800   30.55100
      N    N198    -3.46700    1.98500   29.68800
      C    C199    -3.74600    3.33300   29.21600
      C    C200    -4.31900    3.31800   27.83400
      O    O201    -3.97800    2.45900   27.02200
      C    C202    -2.51200    4.21700   29.20100
      C    C203    -1.25100    3.44100   29.23600
      C    C204    -0.04500    4.37000   29.31000
      O    O205     0.81100    4.21400   30.17800
      N    N206     0.01500    5.33800   28.39500
      N    N207    -5.16100    4.29700   27.56900
      C    C208    -5.72900    4.48500   26.25000
      C    C209    -5.35300    5.86700   25.77900
      O    O210    -5.66500    6.85000   26.44700
      C    C211    -7.24600    4.43200   26.30100
      C    C212    -7.71200    3.12600   26.94400
      C    C213    -7.83100    4.62500   24.87700
      C    C214    -9.19300    3.10000   27.21800
      N    N215    -4.65100    5.94800   24.65400
      C    C216    -4.49600    7.20600   23.95000
      C    C217    -5.66000    7.29700   22.96800
      O    O218    -5.88500    6.37800   22.12500
      C    C219    -3.17400    7.28600   23.16900
      O    O220    -2.06500    7.11000   24.04900
      C    C221    -3.03100    8.63400   22.44100
      N    N222    -6.38400    8.40400   23.07100
      C    C223    -7.58600    8.59900   22.33200
      C    C224    -7.20800    9.53800   21.20300
      O    O225    -6.69300   10.62300   21.46300
      C    C226    -8.68300    9.24700   23.21000
      C    C227    -9.14100    8.28600   24.32400
      C    C228    -9.86800    9.68400   22.35300
      C    C229   -10.15100    8.93600   25.29300
      N    N230    -7.43500    9.10900   19.96000
      C    C231    -7.11700    9.96300   18.80800
      C    C232    -8.34800   10.64900   18.22300
      O    O233    -9.47200   10.15200   18.32000
      C    C234    -6.37900    9.19800   17.66800
      O    O235    -7.26500    8.22800   17.11600
      C    C236    -5.15700    8.50500   18.19000
      N    N237    -8.10000   11.80300   17.62300
      C    C238    -9.11100   12.63800   17.00600
      C    C239    -8.43800   13.12400   15.72700
      O    O240    -7.33200   13.67500   15.77900
      C    C241    -9.44400   13.81900   17.91200
      C    C242   -10.91900   14.15800   18.00500
      C    C243   -11.13200   15.56600   18.54600
      C    C244   -12.58000   16.00600   18.32500
      N    N245   -12.73300   17.49200   18.13000
      N    N246    -9.09100   12.87300   14.58400
      C    C247    -8.51000   13.09800   13.24400
      C    C248    -7.17500   12.34900   13.07200
      O    O249    -6.20800   12.89100   12.52300
      C    C250    -8.33100   14.60200   12.95900
      C    C251    -9.48000   15.45000   13.50000
      O    O252    -9.28800   16.27300   14.40900
      N    N253   -10.68300   15.25200   12.95000
      N    N254    -7.09900   11.12100   13.58200
      C    C255    -5.83200   10.35900   13.53500
      C    C256    -4.68200   10.83900   14.43700
      O    O257    -3.65600   10.15100   14.55400
      N    N258    -4.83600   12.00300   15.08400
      C    C259    -3.78900   12.52000   15.98900
      C    C260    -4.12500   12.30200   17.49100
      O    O261    -5.27400   12.53100   17.90800
      C    C262    -3.53900   14.01200   15.69700
      N    N263    -3.12200   11.89100   18.30800
      C    C264    -3.41000   11.66700   19.73700
      C    C265    -3.98000   12.96200   20.30100
      O    O266    -3.48600   14.02700   19.96200
      C    C267    -2.01900   11.38100   20.34200
      C    C268    -1.15700   10.99100   19.18300
      C    C269    -1.67800   11.77200   18.01900
      N    N270    -5.01700   12.87900   21.11900
      C    C271    -5.63500   14.07500   21.68300
      C    C272    -5.74500   14.05400   23.19800
      O    O273    -5.66100   15.10200   23.83100
      C    C274    -7.03700   14.33800   21.04800
      N    N275    -5.93700   12.86700   23.76800
      C    C276    -6.09200   12.70300   25.21300
      C    C277    -5.64200   11.32000   25.59700
      O    O278    -5.53000   10.39700   24.73800
      C    C279    -7.54600   12.89000   25.63900
      N    N280    -5.44400   11.14800   26.89900
      C    C281    -5.06400    9.86800   27.42700
      C    C282    -6.01700    9.57800   28.58700
      O    O283    -6.32100   10.46900   29.41400
      C    C284    -3.56400    9.86400   27.90500
      C    C285    -3.24800    8.57100   28.62500
      C    C286    -2.61700   10.03900   26.71800
      N    N287    -6.48300    8.33100   28.64100
      C    C288    -7.28600    7.87200   29.77000
      C    C289    -6.55000    6.81200   30.57800
      O    O290    -6.05900    5.83900   30.00200
      C    C291    -8.64100    7.31700   29.26200
      C    C292    -9.74800    6.99900   30.26100
      C    C293   -10.44700    8.27100   30.74700
      C    C294   -10.78300    6.07100   29.59500
      N    N295    -6.48500    6.98700   31.90800
      C    C296    -5.87900    5.99200   32.80200
      C    C297    -6.73700    5.82100   34.04800
      O    O298    -7.59100    6.64200   34.30900
      C    C299    -4.43300    6.39900   33.25800
      C    C300    -3.52400    6.41800   32.07900
      C    C301    -4.43600    7.76300   33.95500
      N    N302    -6.49300    4.76800   34.83400
      C    C303    -7.25700    4.54600   36.07600
      C    C304    -6.98300    5.68800   37.04600
      O    O305    -5.89200    6.31900   37.00400
      N    N306    -7.95100    5.98100   37.90900
      C    C307    -7.70400    6.92200   38.99000
      C    C308    -6.57700    6.48300   39.93900
      O    O309    -5.74500    7.32800   40.36900
      C    C310    -9.01800    7.20600   39.79200
      N    N311    -6.55100    5.19800   40.29700
      C    C312    -5.48600    4.64800   41.12900
      C    C313    -4.14900    4.76000   40.38000
      O    O314    -3.13300    5.14700   40.96000
      C    C315    -5.74300    3.19400   41.50500
      C    C316    -6.92100    3.02200   42.45100
      O    O317    -7.31700    3.99500   43.13600
      O    O318    -7.44300    1.89300   42.51900
      N    N319    -4.15200    4.41800   39.09200
      C    C320    -2.94000    4.58000   38.27800
      C    C321    -2.41900    6.04300   38.25500
      O    O322    -1.20300    6.28700   38.35800
      C    C323    -3.12000    4.01700   36.84700
      C    C324    -1.79900    3.86200   36.08000
      C    C325    -0.77600    2.98200   36.84400
      O    O326    -1.17100    2.13800   37.69300
      O    O327     0.42000    3.12400   36.61300
      N    N328    -3.33800    6.99400   38.16600
      C    C329    -2.97800    8.40500   38.16300
      C    C330    -2.31100    8.78500   39.50500
      O    O331    -1.26400    9.41800   39.51800
      C    C332    -4.21900    9.26800   37.92900
      C    C333    -3.90100   10.73600   37.93500
      C    C334    -4.11200   11.63800   38.95600
      C    C335    -3.27100   11.44400   36.88700
      N    N336    -3.66000   12.88400   38.57300
      C    C337    -3.15900   12.79500   37.30100
      C    C338    -2.79900   11.07300   35.61800
      C    C339    -2.57900   13.78700   36.49000
      C    C340    -2.24100   12.08100   34.78200
      C    C341    -2.14600   13.42400   35.24400
      N    N342    -2.88100    8.32200   40.60400
      C    C343    -2.28800    8.50300   41.94600
      C    C344    -0.86900    7.86200   42.05300
      O    O345     0.07100    8.51100   42.52800
      C    C346    -3.20800    7.89900   42.99900
      C    C347    -4.21800    8.85300   43.52000
      C    C348    -3.50400    9.99800   44.27200
      O    O349    -2.80300    9.72600   45.27700
      O    O350    -3.59900   11.15400   43.81800
      N    N351    -0.74300    6.60100   41.63500
      C    C352     0.56700    5.92600   41.57000
      C    C353     1.62800    6.75800   40.84600
      O    O354     2.76500    6.94000   41.33400
      C    C355     0.42900    4.56200   40.89700
      O    O356    -0.19800    3.63700   41.78300
      N    N357     1.25800    7.27000   39.68100
      C    C358     2.14400    8.15500   38.93600
      C    C359     2.50800    9.46300   39.68100
      O    O360     3.69100    9.81400   39.75200
      C    C361     1.57900    8.41100   37.55200
      C    C362     1.62100    7.17100   36.61900
      C    C363     0.88400    7.47900   35.31600
      C    C364     3.07100    6.68200   36.30900
      N    N365     1.51300   10.17900   40.20200
      C    C366     1.76800   11.38700   41.00200
      C    C367     2.70600   11.11000   42.18600
      O    O368     3.57900   11.90300   42.46900
      C    C369     0.45800   12.01400   41.54000
      C    C370    -0.53300   12.50400   40.40700
      C    C371     0.19600   13.35700   39.36900
      O    O372     0.89100   14.30600   39.71300
      N    N373     0.08000   12.99000   38.11200
      N    N374     2.51600    9.98400   42.89300
      C    C375     3.37700    9.69000   44.01800
      C    C376     4.78100    9.25400   43.55000
      O    O377     5.77700    9.50700   44.22800
      C    C378     2.72500    8.61600   44.92000
      C    C379     1.49000    9.10000   45.63100
      C    C380     1.83300   10.33100   46.48900
      O    O381     2.58800   10.17100   47.48400
      O    O382     1.42900   11.45900   46.10800
      N    N383     4.87600    8.58600   42.39700
      C    C384     6.18500    8.24100   41.88100
      C    C385     6.98000    9.51300   41.55600
      O    O386     8.18100    9.61200   41.85600
      C    C387     6.06800    7.35600   40.61400
      O    O388     5.32400    6.18300   40.94500
      C    C389     7.43900    6.95700   40.10800
      N    N390     6.30600   10.44900   40.89900
      C    C391     6.88500   11.76700   40.60200
      C    C392     7.36800   12.45200   41.87200
      O    O393     8.50900   12.93400   41.93600
      C    C394     5.86600   12.67600   39.92100
      C    C395     5.54200   12.44700   38.45000
      C    C396     4.29100   13.25900   38.23000
      C    C397     6.68000   12.94000   37.54700
      N    N398     6.52300   12.47400   42.89900
      C    C399     6.95400   13.07100   44.15200
      C    C400     8.25700   12.43100   44.68400
      O    O401     9.25000   13.13300   44.97400
      C    C402     5.85800   12.96200   45.24100
      C    C403     6.43000   13.47200   46.55600
      C    C404     6.43600   14.84000   46.85000
      C    C405     6.99900   12.59700   47.47300
      C    C406     7.01100   15.32600   48.04400
      C    C407     7.55100   13.06100   48.65200
      C    C408     7.56400   14.42600   48.92600
      O    O409     8.12700   14.86800   50.10300
      N    N410     8.22000   11.10700   44.84800
      C    C411     9.31800   10.42000   45.54500
      C    C412    10.64300   10.46000   44.79600
      O    O413    11.71100   10.64800   45.43500
      C    C414     8.95600    8.99400   45.92800
      C    C415     8.10200    8.97100   47.17000
      C    C416     6.76600    8.68800   47.25300
      C    C417     8.54500    9.24700   48.50500
      N    N418     6.35100    8.75200   48.56800
      C    C419     7.41800    9.10500   49.35800
      C    C420     9.77400    9.62600   49.05500
      C    C421     7.48500    9.31600   50.74200
      C    C422     9.85400    9.83200   50.45400
      C    C423     8.70600    9.68100   51.27000
      N    N424    10.57400   10.33100   43.45400
      C    C425    11.81300   10.39500   42.63200
      C    C426    12.52500   11.74400   42.72900
      O    O427    13.72500   11.82500   42.46800
      C    C428    11.52000   10.06400   41.13700
      C    C429    11.18700    8.59000   40.86100
      C    C430    10.86500    8.37400   39.40500
      C    C431    12.35100    7.69700   41.25900
      N    N432    11.77100   12.79400   43.08500
      C    C433    12.31200   14.16100   43.24000
      C    C434    12.94600   14.45500   44.61300
      O    O435    13.46200   15.56900   44.82400
      C    C436    11.21300   15.21300   42.93100
      N    N437    12.88800   13.48700   45.54900
      C    C438    13.42300   13.73600   46.88900
      C    C439    14.94500   13.45000   46.99700
      O    O440    15.45600   12.51500   46.38400
      C    C441    12.63100   12.96400   47.95000
      C    C442    11.14600   13.27100   47.89000
      C    C443    10.85400   14.78400   47.85500
      O    O444    11.32500   15.52200   48.71600
      N    N445    10.05600   15.23200   46.87000
      N    N446    15.67000   14.28000   47.76000
      C    C447    17.13100   14.11700   47.82600
      C    C448    17.50900   12.80000   48.48800
      O    O449    16.87300   12.41700   49.49700
      C    C450    17.61600   15.29600   48.71000
      C    C451    16.41200   15.84200   49.40800
      C    C452    15.14900   15.37600   48.62100
      N    N453    18.48500   12.09900   47.91100
      C    C454    19.00000   10.85300   48.47700
      C    C455    17.94500    9.75600   48.51400
      O    O456    18.04200    8.83400   49.35600
      N    N457    16.92000    9.85200   47.65600
      C    C458    15.84200    8.82800   47.65500
      C    C459    16.36500    7.40100   47.43700
      O    O460    16.01900    6.49200   48.20400
      C    C461    14.58900    9.18800   46.71600
      C    C462    13.44500    8.17300   46.93200
      C    C463    14.98500    9.24900   45.24600
      C    C464    12.99100    8.10200   48.41200
      N    N465    17.22200    7.18300   46.43600
      C    C466    17.65900    5.81000   46.15000
      C    C467    18.55000    5.21200   47.26700
      O    O468    18.41400    4.01400   47.60900
      C    C469    18.37300    5.74200   44.79400
      C    C470    17.44700    6.01400   43.61700
      C    C471    18.27300    6.45800   42.37800
      N    N472    17.39000    6.76300   41.24300
      C    C473    16.83300    7.94300   41.03600
      N    N474    17.05900    8.93200   41.88900
      N    N475    16.04800    8.12900   39.97300
      N    N476    19.41700    6.05700   47.81300
      C    C477    20.29700    5.76000   48.95600
      C    C478    19.49800    5.45200   50.21400
      O    O479    19.84400    4.51700   50.93500
      C    C480    21.26900    6.92700   49.22700
      C    C481    22.31700    7.16700   48.06800
      C    C482    21.81700    8.10500   46.90700
      O    O483    20.60000    8.35800   46.72400
      O    O484    22.68000    8.60700   46.15600
      N    N485    18.42900    6.23000   50.46000
      C    C486    17.44600    5.97500   51.51500
      C    C487    16.86500    4.57800   51.41600
      O    O488    16.77400    3.86000   52.41400
      C    C489    16.23900    6.94000   51.40400
      O    O490    16.48100    8.10100   52.15100
      N    N491    16.40100    4.23500   50.22100
      C    C492    15.74200    2.95100   49.99500
      C    C493    16.72300    1.79000   50.15300
      O    O494    16.40000    0.78700   50.76700
      C    C495    15.06500    2.91500   48.62400
      C    C496    13.85700    3.86400   48.60600
      C    C497    14.56400    1.53100   48.29600
      C    C498    13.45300    4.20800   47.20000
      N    N499    17.93900    1.97200   49.66900
      C    C500    18.96000    0.94900   49.80900
      C    C501    19.32400    0.73800   51.29200
      O    O502    19.47000   -0.39700   51.72000
      C    C503    20.23200    1.26800   48.92400
      N    N504    19.42100    1.81400   52.06900
      C    C505    19.70400    1.72600   53.50500
      C    C506    18.53900    1.08500   54.27900
      O    O507    18.73000    0.22100   55.14300
      C    C508    19.99300    3.11600   54.08700
      C    C509    21.39600    3.65500   53.81900
      C    C510    21.65000    5.02000   54.50000
      O    O511    21.46500    5.12800   55.74500
      O    O512    22.03100    5.98300   53.78100
      N    N513    17.32200    1.47800   53.92900
      C    C514    16.12500    0.86800   54.53500
      C    C515    15.98700   -0.62300   54.14200
      O    O516    15.58500   -1.46000   54.96300
      C    C517    14.87800    1.64700   54.11600
      N    N518    16.34300   -0.94800   52.89900
      C    C519    16.35800   -2.34200   52.47300
      C    C520    17.42000   -3.18600   53.22200
      O    O521    17.14400   -4.35600   53.55800
      C    C522    16.47100   -2.46600   50.94800
      C    C523    15.11500   -2.16500   50.23400
      O    O524    14.02300   -2.23100   50.89000
      O    O525    15.14100   -1.84600   49.03000
      N    N526    18.59700   -2.60200   53.48200
      C    C527    19.60200   -3.27400   54.31700
      C    C528    19.14600   -3.46100   55.76700
      O    O529    19.41700   -4.51600   56.36200
      C    C530    21.03200   -2.62300   54.21600
      N    N531    18.40700   -2.48100   56.32100
      C    C532    17.78200   -2.66400   57.65000
      C    C533    16.83100   -3.84700   57.63100
      O    O534    16.86300   -4.70800   58.54800
      C    C535    16.99600   -1.44300   58.12300
      C    C536    17.86400   -0.20300   58.31600
      O    O537    19.11000   -0.30100   58.62200
      O    O538    17.27500    0.90400   58.16300
      N    N539    15.98100   -3.90100   56.59800
      C    C540    15.03300   -4.97400   56.53600
      C    C541    15.77000   -6.32000   56.54700
      O    O542    15.37600   -7.21700   57.28700
      C    C543    14.11400   -4.88400   55.32000
      C    C544    13.11700   -3.72500   55.49600
      C    C545    13.37300   -6.23000   55.12000
      C    C546    12.39700   -3.36700   54.22500
      N    N547    16.83000   -6.43800   55.75800
      C    C548    17.55500   -7.71600   55.61600
      C    C549    18.30400   -8.11800   56.89400
      O    O550    18.57800   -9.30500   57.08000
      C    C551    18.53100   -7.70300   54.39100
      N    N552    18.62600   -7.14300   57.75900
      C    C553    19.30500   -7.40800   59.02600
      C    C554    18.35200   -7.45600   60.23200
      O    O555    18.80500   -7.61800   61.33600
      C    C556    20.34600   -6.31500   59.30700
      O    O557    21.52200   -6.52100   58.55400
      N    N558    17.05200   -7.26500   60.01800
      C    C559    16.10400   -7.11200   61.13200
      C    C560    16.29100   -5.82800   61.96100
      O    O561    15.91100   -5.80800   63.12800
      N    N562    16.82400   -4.75000   61.36200
      C    C563    16.91200   -3.45900   62.09600
      C    C564    15.57600   -2.68800   61.89100
      O    O565    15.50200   -1.74400   61.09800
      C    C566    18.09900   -2.60700   61.62800
      C    C567    19.48500   -3.22700   61.90900
      C    C568    20.61400   -2.20800   61.62100
      N    N569    20.75700   -1.97500   60.17500
      C    C570    21.64500   -2.61100   59.40800
      N    N571    22.46000   -3.52700   59.95300
      N    N572    21.72200   -2.34600   58.10800
      N    N573    14.53700   -3.15000   62.56600
      C    C574    13.21500   -2.53100   62.51900
      C    C575    12.64500   -2.52700   63.92100
      O    O576    13.13400   -3.26500   64.80600
      C    C577    12.23700   -3.28700   61.60200
      O    O578    12.06300   -4.60500   62.14200
      C    C579    12.76500   -3.38800   60.15100
      N    N580    11.62700   -1.68700   64.11600
      C    C581    11.00900   -1.41700   65.41700
      C    C582     9.49700   -1.49200   65.26400
      O    O583     8.93900   -1.00700   64.25700
      C    C584    11.40800   -0.00300   65.92500
      C    C585    12.91400    0.08900   66.14900
      C    C586    13.46400   -0.17600   67.40500
      C    C587    13.77200    0.35500   65.08300
      C    C588    14.84900   -0.14400   67.59300
      C    C589    15.13800    0.43000   65.25000
      C    C590    15.68200    0.16700   66.50300
      O    O591    17.05500    0.19500   66.64500
      N    N592     8.82700   -2.05600   66.26100
      C    C593     7.35100   -2.16300   66.20300
      C    C594     6.64600   -1.14500   67.09000
      O    O595     7.28300   -0.29500   67.70300
      N    N596     5.32200   -1.27000   67.18800
      C    C597     4.49200   -0.28600   67.87100
      C    C598     4.91100    0.04600   69.29900
      O    O599     5.04700    1.23700   69.64100
      C    C600     3.03400   -0.73800   67.87000
      C    C601     2.15400    0.25900   68.63400
      C    C602     0.66500    0.00200   68.44900
      O    O603     0.28900   -1.05600   67.88900
      O    O604    -0.13000    0.88100   68.85700
      N    N605     5.11400   -0.97200   70.13500
      C    C606     5.42400   -0.67400   71.54800
      C    C607     6.73500    0.07300   71.68000
      O    O608     6.80300    1.05200   72.42300
      C    C609     5.38300   -1.93200   72.47600
      C    C610     3.98100   -2.55700   72.55300
      O    O611     2.97700   -1.80400   72.46900
      O    O612     3.87500   -3.81800   72.65300
      N    N613     7.75700   -0.34400   70.92500
      C    C614     9.02400    0.33200   70.97800
      C    C615     8.95600    1.77800   70.49600
      O    O616     9.55300    2.67300   71.10900
      C    C617    10.08000   -0.40600   70.14600
      C    C618    10.37000   -1.82400   70.61800
      C    C619    10.86200   -2.68800   69.46400
      O    O620    10.06100   -3.09900   68.59000
      O    O621    12.08300   -2.92600   69.41400
      N    N622     8.25200    2.00100   69.38700
      C    C623     8.17300    3.33300   68.81900
      C    C624     7.36000    4.24200   69.75200
      O    O625     7.76400    5.36800   70.00000
      C    C626     7.55200    3.31300   67.37500
      C    C627     8.49100    2.65000   66.36800
      C    C628     7.21200    4.74400   66.88400
      C    C629     9.72000    3.45500   66.00300
      N    N630     6.21300    3.75900   70.25100
      C    C631     5.37700    4.55700   71.16000
      C    C632     6.14400    4.92600   72.42200
      O    O633     6.08800    6.07900   72.88200
      C    C634     4.07300    3.83300   71.51000
      C    C635     3.06000    3.73400   70.33500
      C    C636     1.73600    3.34900   70.88300
      N    N637     0.66400    3.30800   69.88300
      C    C638     0.00200    4.38800   69.46600
      N    N639     0.32500    5.59500   69.95200
      N    N640    -1.00000    4.25900   68.58300
      N    N641     6.90000    3.97700   72.95900
      C    C642     7.70300    4.29600   74.14100
      C    C643     8.89700    5.19700   73.84800
      O    O644     9.16400    6.10300   74.61600
      C    C645     8.13800    3.00900   74.89800
      N    N646     9.60600    5.01700   72.73900
      C    C647    10.73400    5.93400   72.49300
      C    C648    10.28700    7.38700   72.22400
      O    O649    10.97800    8.34600   72.59700
      C    C650    11.58900    5.45100   71.31800
      C    C651    12.71100    6.39500   70.90400
      C    C652    13.49000    5.86400   69.71900
      O    O653    13.10800    4.78700   69.20900
      O    O654    14.47800    6.49700   69.28400
      N    N655     9.15700    7.55200   71.53900
      C    C656     8.76700    8.89300   71.12100
      C    C657     7.71200    9.53000   72.01300
      O    O658     7.32100   10.66300   71.76000
      C    C659     8.34200    8.91100   69.63800
      C    C660     9.49000    8.73800   68.69000
      C    C661    10.33400    9.80900   68.40200
      C    C662     9.74900    7.51300   68.10700
      C    C663    11.40500    9.64900   67.53000
      C    C664    10.82400    7.34900   67.24400
      C    C665    11.65500    8.41900   66.95100
      N    N666     7.26700    8.80300   73.04000
      C    C667     6.31800    9.30800   74.05100
      C    C668     4.91400    9.53200   73.47800
      O    O669     4.33700   10.61800   73.65300
      N    N670     4.39400    8.53500   72.75500
      C    C671     3.05200    8.61900   72.15000
      C    C672     2.31300    7.37200   72.58000
      O    O673     2.22700    6.42600   71.79600
      C    C674     3.07900    8.72800   70.56100
      C    C675     1.68400    9.06200   69.99300
      C    C676     4.08700    9.74900   70.08800
      N    N677     1.79000    7.36300   73.83500
      C    C678     1.09600    6.20500   74.37600
      C    C679    -0.24600    5.96200   73.68400
      O    O680    -0.83200    6.87500   73.10400
      C    C681     0.88100    6.57500   75.86000
      C    C682     0.71800    8.05900   75.84600
      C    C683     1.68900    8.52800   74.74900
      N    N684    -0.69500    4.71600   73.72500
      C    C685    -1.99300    4.33400   73.19900
      C    C686    -3.10000    4.82100   74.14700
      O    O687    -2.81900    5.35800   75.22000
      C    C688    -2.02500    2.82100   73.13800
      C    C689    -2.70600    2.20000   71.93600
      C    C690    -2.69800    0.68100   72.12500
      N    N691    -1.35900    0.28200   72.54600
      C    C692    -0.58900   -0.59800   71.91600
      N    N693    -1.03700   -1.25000   70.84700
      N    N694     0.62500   -0.84100   72.38100
      N    N695    -4.35300    4.64400   73.72400
      C    C696    -5.56000    4.64500   74.61600
      C    C697    -6.42700    5.88400   74.50600
      O    O698    -7.36900    5.88700   73.70200
      C    C699    -5.25500    4.30000   76.09800
      C    C700    -5.73100    2.91400   76.50800
      C    C701    -4.67900    1.85400   76.22300
      N    N702    -5.17900    0.73100   75.41800
      C    C703    -4.48200   -0.38300   75.15800
      N    N704    -3.25800   -0.54200   75.65800
      N    N705    -5.00900   -1.35100   74.40700
