# CIF file generated by openbabel 2.3.2, see http://openbabel.sf.net
data_I
_chemical_name_common '../proteins/pdb/3OEI.pdb'
_cell_length_a 42.219
_cell_length_b 187.512
_cell_length_c 113.881
_cell_angle_alpha 90
_cell_angle_beta 94.46
_cell_angle_gamma 90
_space_group_name_H-M_alt 'P 1 21 1'
_space_group_name_Hall 'P 2yb'
loop_
    _symmetry_equiv_pos_as_xyz
    'x,y,z'
    '-x,1/2+y,-z'
loop_
    _atom_site_type_symbol
    _atom_site_label
    _atom_site_Cartn_x
    _atom_site_Cartn_y
    _atom_site_Cartn_z
      N    N1     2.40100  -39.57300   59.33300
      C    C2     3.82700  -39.76500   59.05900
      C    C3     4.23000  -41.24700   58.99100
      O    O4     3.95700  -42.01200   59.91500
      C    C5     4.66200  -39.04600   60.12000
      O    O6     6.04200  -39.12700   59.82900
      N    N7     4.88600  -41.64200   57.90100
      C    C8     5.29100  -43.03900   57.70500
      C    C9     6.81100  -43.22700   57.68600
      O    O10     7.56700  -42.29900   57.36100
      C    C11     4.71800  -43.60100   56.40400
      C    C12     5.00200  -42.63400   55.25500
      C    C13     3.22600  -43.81100   56.54100
      C    C14     4.96500  -43.27300   53.88600
      N    N15     7.25400  -44.43000   58.04100
      C    C16     8.67700  -44.75100   58.05100
      C    C17     9.16300  -44.99200   56.63000
      O    O18     8.38600  -45.37800   55.75400
      C    C19     8.93400  -46.02500   58.86900
      O    O20     8.53500  -47.16300   58.11100
      N    N21    10.45900  -44.80600   56.41300
      C    C22    11.04900  -44.98100   55.08100
      C    C23    10.85400  -46.40000   54.57400
      O    O24    10.74900  -46.63800   53.37900
      C    C25    12.52700  -44.62900   55.10700
      N    N26    10.80800  -47.34800   55.49700
      C    C27    10.65300  -48.73000   55.10300
      C    C28     9.29600  -49.01100   54.45100
      O    O29     9.22600  -49.69400   53.43600
      C    C30    10.90400  -49.65200   56.29400
      O    O31    11.02000  -50.98000   55.84400
      N    N32     8.21400  -48.48700   55.01200
      C    C33     6.90300  -48.69200   54.38000
      C    C34     6.71900  -47.84300   53.11800
      O    O35     6.06900  -48.26100   52.15300
      C    C36     5.75800  -48.47500   55.36600
      C    C37     5.94000  -47.32100   56.34200
      C    C38     4.85700  -47.30900   57.43000
      O    O39     3.65900  -47.46900   57.07000
      O    O40     5.20300  -47.16400   58.63400
      N    N41     7.32000  -46.66400   53.11500
      C    C42     7.20900  -45.77000   51.97500
      C    C43     7.86100  -46.39500   50.76200
      O    O44     7.40300  -46.21400   49.62900
      C    C45     7.85200  -44.39600   52.29200
      N    N46     8.94000  -47.13600   50.99300
      C    C47     9.61900  -47.79600   49.89100
      C    C48     8.75900  -48.94300   49.34300
      O    O49     8.60800  -49.09800   48.13400
      C    C50    10.98700  -48.30200   50.34900
      C    C51    11.65700  -49.22000   49.36200
      C    C52    13.09400  -49.52400   49.78900
      N    N53    13.91400  -49.90500   48.64500
      C    C54    14.60600  -51.03600   48.58600
      N    N55    14.55800  -51.88800   49.60600
      N    N56    15.33400  -51.31600   47.51000
      N    N57     8.18000  -49.73000   50.23300
      C    C58     7.28200  -50.80700   49.81900
      C    C59     6.06600  -50.26600   49.07700
      O    O60     5.63100  -50.82400   48.06900
      C    C61     6.79700  -51.59800   51.03800
      C    C62     7.78400  -52.60800   51.59000
      C    C63     7.33500  -53.15500   52.93100
      O    O64     6.88400  -54.29500   53.03300
      N    N65     7.44400  -52.33400   53.96900
      N    N66     5.53600  -49.15100   49.56300
      C    C67     4.26700  -48.62200   49.07000
      C    C68     4.27400  -48.64400   49.03700
      C    C69     4.43300  -47.36700   48.21400
      O    O70     3.48300  -46.58800   48.05200
      C    C71     3.34800  -48.30100   50.25500
      C    C72     3.29200  -48.41000   50.18300
      C    C73     3.04900  -49.49300   51.15300
      C    C74     1.91700  -48.99500   49.92900
      C    C75     2.49100  -50.70600   50.36000
      C    C76     1.78500  -50.42000   50.44200
      N    N77     2.41400  -51.83300   51.28400
      N    N78     2.44800  -51.40600   49.59600
      C    C79     2.94100  -53.02500   51.08000
      C    C80     2.99100  -52.52600   50.05900
      N    N81     2.81500  -53.94300   52.02200
      N    N82     2.96500  -52.78400   51.36200
      N    N83     3.55500  -53.31200   49.93600
      N    N84     3.56900  -53.38300   49.22600
      N    N85     5.62300  -47.15200   47.66300
      C    C86     5.85000  -45.89100   46.93900
      C    C87     4.83200  -45.65300   45.81800
      O    O88     4.33900  -44.54600   45.64300
      C    C89     7.28700  -45.78700   46.40400
      C    C90     7.57500  -44.39800   45.82100
      C    C91     7.36300  -43.37900   46.90500
      C    C92     8.98300  -44.27500   45.20300
      N    N93     4.50800  -46.69300   45.05600
      C    C94     3.60900  -46.50800   43.92700
      C    C95     2.21300  -45.95800   44.29800
      O    O96     1.77800  -44.94700   43.73500
      C    C97     3.51200  -47.78100   43.06700
      C    C98     4.78600  -48.12200   42.33900
      C    C99     5.95400  -47.40300   42.57200
      C    C100     4.81500  -49.15900   41.41400
      C    C101     7.12000  -47.71300   41.90100
      C    C102     5.98100  -49.47100   40.73800
      C    C103     7.13500  -48.74500   40.97700
      N    N104     1.49400  -46.62400   45.22200
      C    C105     0.17800  -46.04800   45.56400
      C    C106     0.29500  -44.75500   46.37700
      O    O107    -0.67700  -43.97200   46.45400
      C    C108    -0.47400  -47.12800   46.41600
      C    C109     0.70800  -47.94900   46.96100
      C    C110     1.71600  -47.93600   45.85500
      N    N111     1.45100  -44.52200   46.99200
      C    C112     1.64000  -43.23800   47.67400
      C    C113     1.77500  -42.08300   46.66200
      O    O114     1.33100  -40.98000   46.92300
      C    C115     2.80900  -43.28100   48.65300
      C    C116     2.57700  -44.07900   49.94500
      C    C117     3.89300  -44.19500   50.68400
      C    C118     1.48700  -43.45300   50.84500
      N    N119     2.37100  -42.35700   45.50400
      C    C120     2.36700  -41.40800   44.39900
      C    C121     0.95200  -41.17500   43.81800
      O    O122     0.57300  -40.03100   43.55900
      C    C123     3.37900  -41.81900   43.30200
      C    C124     4.81000  -41.69200   43.83300
      C    C125     3.21300  -40.96100   42.02900
      C    C126     5.82500  -42.29000   42.91200
      N    N127     0.16300  -42.23500   43.61400
      C    C128    -1.23000  -42.02900   43.21300
      C    C129    -1.99500  -41.19600   44.25300
      O    O130    -2.77500  -40.32300   43.89700
      C    C131    -1.97200  -43.34100   42.91800
      C    C132    -3.46300  -43.10900   42.58800
      C    C133    -4.08400  -44.16500   41.65800
      O    O134    -3.75000  -45.37600   41.75400
      O    O135    -4.93300  -43.77100   40.82700
      N    N136    -1.76700  -41.47500   45.53300
      C    C137    -2.42900  -40.75900   46.60600
      C    C138    -2.16200  -39.24500   46.57400
      O    O139    -3.10400  -38.45300   46.61800
      C    C140    -2.01500  -41.33900   47.94800
      C    C141    -2.61900  -40.67500   49.15000
      C    C142    -2.04900  -41.21900   50.43400
      O    O143    -2.12200  -42.42200   50.68900
      N    N144    -1.43500  -40.34500   51.24100
      N    N145    -0.89100  -38.84200   46.50000
      C    C146    -0.56900  -37.42100   46.59200
      C    C147    -1.11900  -36.67500   45.37400
      O    O148    -1.46200  -35.49900   45.46000
      C    C149     0.96100  -37.15000   46.83900
      C    C150     1.42000  -37.83100   48.15700
      C    C151     1.80600  -37.61200   45.66200
      N    N152    -1.22600  -37.38800   44.25600
      C    C153    -1.86500  -36.88500   43.05100
      C    C154    -3.38700  -36.87400   43.10900
      O    O155    -4.03900  -36.31200   42.23000
      C    C156    -1.42900  -37.68100   41.82800
      C    C157    -0.10500  -37.20100   41.27600
      O    O158    -0.05100  -36.21800   40.54000
      N    N159     0.97000  -37.86500   41.66000
      N    N160    -3.95100  -37.46400   44.14800
      C    C161    -5.39200  -37.54700   44.25100
      C    C162    -5.93300  -36.51100   45.21900
      O    O163    -6.90600  -35.83700   44.91300
      C    C164    -5.86700  -38.96800   44.67300
      O    O165    -5.45200  -39.93200   43.69000
      C    C166    -7.38900  -39.00200   44.78100
      N    N167    -5.29300  -36.38100   46.37900
      C    C168    -5.79700  -35.52200   47.44100
      C    C169    -4.87600  -34.32500   47.73900
      O    O170    -5.16400  -33.50400   48.61100
      C    C171    -6.07200  -36.33900   48.71900
      C    C172    -4.79100  -36.80900   49.41700
      O    O173    -3.68100  -36.43300   48.97600
      O    O174    -4.89500  -37.54500   50.43000
      N    N175    -3.77300  -34.22400   47.01200
      C    C176    -2.92300  -33.04200   47.10200
      C    C177    -2.43000  -32.72800   48.50000
      O    O178    -2.19900  -31.57100   48.82200
      C    C179    -3.65900  -31.81200   46.54600
      C    C180    -4.29800  -32.06000   45.22000
      N    N181    -3.56600  -32.32400   44.08100
      C    C182    -5.59900  -32.14700   44.86000
      C    C183    -4.39100  -32.54000   43.07200
      N    N184    -5.63000  -32.44100   43.51700
      N    N185    -2.27800  -33.74700   49.33800
      C    C186    -1.69100  -33.54900   50.64900
      C    C187    -0.30500  -34.18000   50.65300
      O    O188    -0.12900  -35.31200   50.20000
      C    C189    -2.52300  -34.20800   51.75100
      C    C190    -3.96900  -33.78600   51.78200
      C    C191    -4.11600  -32.28300   51.77800
      O    O192    -3.78000  -31.61800   52.75500
      N    N193    -4.58500  -31.73700   50.66100
      N    N194     0.68400  -33.45300   51.16200
      C    C195     2.03300  -34.01600   51.27700
      C    C196     2.06600  -35.22100   52.22500
      O    O197     1.35200  -35.22200   53.23600
      C    C198     2.83100  -32.87300   51.91500
      C    C199     2.04600  -31.63600   51.59400
      C    C200     0.61500  -32.04900   51.59700
      N    N201     2.89800  -36.21200   51.90800
      C    C202     3.18900  -37.33000   52.81200
      C    C203     4.55900  -37.18300   53.49600
      O    O204     5.58500  -37.02900   52.82400
      C    C205     3.14200  -38.66400   52.04200
      C    C206     3.72600  -39.81100   52.87600
      C    C207     1.71900  -38.95000   51.63600
      N    N208     4.58800  -37.23700   54.82600
      C    C209     5.85400  -37.10300   55.53200
      C    C210     6.48800  -38.46900   55.80000
      O    O211     5.84100  -39.36300   56.30900
      C    C212     5.68800  -36.30400   56.83200
      C    C213     7.00500  -35.95000   57.50700
      C    C214     6.82300  -34.92600   58.64200
      N    N215     6.25800  -33.65900   58.16600
      C    C216     6.91800  -32.49700   58.13700
      N    N217     8.17100  -32.42500   58.55800
      N    N218     6.31600  -31.39500   57.69700
      N    N219     7.76600  -38.61200   55.46100
      C    C220     8.47200  -39.89400   55.57300
      C    C221     9.64200  -39.75900   56.55200
      O    O222    10.47000  -38.85500   56.41900
      C    C223     9.00600  -40.34600   54.20000
      C    C224     7.88700  -40.33400   53.16800
      C    C225     9.66900  -41.75700   54.26000
      C    C226     8.35200  -40.73700   51.78500
      N    N227     9.69600  -40.63400   57.55100
      C    C228    10.76200  -40.58000   58.54700
      C    C229    11.80900  -41.66300   58.29800
      O    O230    11.47700  -42.78000   57.90000
      C    C231    10.22100  -40.71900   59.98200
      O    O232     9.61600  -42.00100   60.14700
      C    C233     9.18100  -39.64400   60.27900
      N    N234    13.06900  -41.31000   58.51700
      C    C235    14.17800  -42.26300   58.46500
      C    C236    15.35800  -41.76800   59.29600
      O    O237    15.35300  -40.63400   59.81300
      C    C238    14.63600  -42.50900   57.02600
      O    O239    15.61600  -41.56900   56.62700
      N    N240    16.36500  -42.63000   59.41300
      C    C241    17.60200  -42.32000   60.12800
      C    C242    18.48500  -41.32400   59.37000
      O    O243    19.28200  -40.59800   59.97300
      C    C244    18.39300  -43.60300   60.36800
      C    C245    17.65800  -44.65000   61.17200
      C    C246    18.53900  -45.86300   61.40300
      N    N247    17.94200  -46.77800   62.36700
      C    C248    18.07700  -46.66600   63.68500
      N    N249    18.79500  -45.66700   64.20000
      N    N250    17.49400  -47.55000   64.49000
      N    N251    18.35500  -41.31700   58.04800
      C    C252    19.07400  -40.37100   57.19100
      C    C253    18.38300  -39.00300   57.13100
      O    O254    18.83500  -38.09100   56.42000
      C    C255    19.21600  -40.94100   55.78800
      N    N256    17.28800  -38.86200   57.87300
      C    C257    16.54000  -37.61700   57.87800
      C    C258    15.14200  -37.81900   57.32300
      O    O259    14.85800  -38.82000   56.67800
      N    N260    14.26000  -36.86900   57.59100
      C    C261    12.89500  -36.98400   57.12200
      C    C262    12.73400  -36.33000   55.76000
      O    O263    13.49500  -35.42700   55.36800
      C    C264    11.91700  -36.37700   58.12800
      C    C265    11.82700  -37.17900   59.41900
      O    O266    11.24800  -36.64700   60.38400
      O    O267    12.32500  -38.33000   59.47500
      N    N268    11.73400  -36.80500   55.03800
      C    C269    11.44000  -36.29900   53.70900
      C    C270     9.94200  -36.02000   53.57600
      O    O271     9.13900  -36.58400   54.32800
      C    C272    11.87900  -37.29300   52.67300
      N    N273     9.58900  -35.14500   52.63200
      C    C274     8.20700  -34.93600   52.24500
      C    C275     8.03000  -35.38600   50.80300
      O    O276     8.84600  -35.06100   49.94600
      C    C277     7.78600  -33.44300   52.42300
      C    C278     6.45700  -33.16600   51.74500
      C    C279     7.71800  -33.08400   53.89200
      N    N280     6.98500  -36.17300   50.54700
      C    C281     6.58700  -36.54800   49.19900
      C    C282     5.33800  -35.74500   48.80000
      O    O283     4.33900  -35.74700   49.52100
      C    C284     6.23300  -38.03000   49.14400
      C    C285     5.80600  -38.53300   47.76900
      C    C286     6.97800  -38.49900   46.82800
      C    C287     5.20800  -39.95800   47.84000
      N    N288     5.38100  -35.06700   47.65800
      C    C289     4.17700  -34.39800   47.14900
      C    C290     4.00100  -34.61200   45.66100
      O    O291     4.93100  -35.01400   44.98200
      C    C292     4.13500  -32.90400   47.52800
      C    C293     5.44900  -32.16300   47.38900
      S    S294     5.32700  -30.42400   47.90800
      C    C295     3.65400  -30.13100   47.39900
      N    N296     2.79600  -34.38900   45.15600
      C    C297     2.61100  -34.43900   43.71400
      C    C298     3.45000  -33.35100   43.04000
      O    O299     3.75600  -32.31400   43.65000
      C    C300     1.13100  -34.29900   43.32400
      O    O301     0.69900  -32.95600   43.41700
      N    N302     3.83600  -33.59900   41.78700
      C    C303     4.63400  -32.63600   41.04600
      C    C304     3.86300  -31.31200   40.85100
      O    O305     4.42600  -30.21400   40.99100
      C    C306     5.07200  -33.22400   39.70900
      N    N307     2.57300  -31.42600   40.55000
      C    C308     1.71200  -30.25300   40.41100
      C    C309     1.67700  -29.45200   41.70600
      O    O310     1.87800  -28.23500   41.68200
      C    C311     0.29500  -30.64900   39.99900
      C    C312     0.21700  -31.11800   38.55500
      O    O313     1.14000  -30.79000   37.77500
      O    O314    -0.76600  -31.80800   38.19900
      N    N315     1.45300  -30.13300   42.83500
      C    C316     1.40100  -29.45100   44.13000
      C    C317     2.74200  -28.84500   44.54500
      O    O318     2.78500  -27.79200   45.16600
      C    C319     0.90000  -30.37900   45.22700
      C    C320    -0.55600  -30.75000   45.04700
      O    O321    -1.32300  -29.92000   44.51600
      O    O322    -0.92900  -31.87500   45.43100
      N    N323     3.83200  -29.51600   44.20700
      C    C324     5.14100  -28.97200   44.46600
      C    C325     5.37900  -27.68900   43.66400
      O    O326     5.91400  -26.72600   44.21000
      C    C327     6.24100  -29.98600   44.19900
      C    C328     7.63200  -29.38700   44.29800
      C    C329     8.23900  -29.18500   45.52300
      C    C330     8.34300  -29.06100   43.15500
      C    C331     9.50500  -28.63500   45.60900
      C    C332     9.60600  -28.51600   43.22800
      C    C333    10.18500  -28.30100   44.45000
      O    O334    11.45600  -27.76400   44.49900
      N    N335     4.98900  -27.68000   42.38700
      C    C336     5.15000  -26.48100   41.55400
      C    C337     4.34400  -25.29400   42.11900
      O    O338     4.83700  -24.16500   42.17200
      C    C339     4.74600  -26.72900   40.09600
      C    C340     5.66700  -27.73300   39.37800
      O    O341     6.79200  -27.97200   39.85100
      O    O342     5.25800  -28.28200   38.32500
      N    N343     3.10400  -25.56800   42.51500
      C    C344     2.24000  -24.56900   43.13800
      C    C345     2.87100  -24.07400   44.43400
      O    O346     2.84200  -22.88100   44.71900
      C    C347     0.81200  -25.14300   43.39000
      N    N348     3.47900  -24.98700   45.19400
      C    C349     4.12900  -24.62800   46.46600
      C    C350     5.36400  -23.75500   46.24400
      O    O351     5.52600  -22.71500   46.89200
      C    C352     4.53600  -25.86400   47.29600
      C    C353     5.36400  -25.48600   48.52500
      C    C354     4.90400  -24.90800   49.68300
      C    C355     6.78300  -25.64300   48.70000
      N    N356     5.94000  -24.70500   50.55600
      C    C357     7.10200  -25.14900   49.98200
      C    C358     7.80900  -26.15700   47.89800
      C    C359     8.40500  -25.15100   50.47900
      C    C360     9.11000  -26.16100   48.39800
      C    C361     9.39300  -25.66500   49.67600
      N    N362     6.23100  -24.19100   45.33600
      C    C363     7.43500  -23.43700   45.00400
      C    C364     7.09300  -22.02100   44.51300
      O    O365     7.79200  -21.06700   44.84200
      C    C366     8.24200  -24.16800   43.94200
      C    C367     9.59300  -23.54300   43.67200
      C    C368    10.58300  -24.53100   43.08500
      O    O369    11.65600  -24.77000   43.65200
      N    N370    10.22900  -25.11000   41.93700
      N    N371     6.02600  -21.89500   43.72400
      C    C372     5.59000  -20.57600   43.23300
      C    C373     4.98700  -19.72100   44.36700
      O    O374     5.22900  -18.52500   44.44700
      C    C375     4.60600  -20.73800   42.07200
      C    C376     4.03800  -19.47300   41.52500
      C    C377     5.04400  -18.63400   40.75500
      O    O378     6.20300  -19.08100   40.57400
      O    O379     4.66300  -17.51300   40.34100
      N    N380     4.21900  -20.34400   45.25600
      C    C381     3.72300  -19.64200   46.43100
      C    C382     4.89200  -19.09800   47.27900
      O    O383     4.91500  -17.91000   47.65700
      C    C384     2.79500  -20.53600   47.25800
      O    O385     1.69700  -20.95400   46.44300
      C    C386     2.26900  -19.80700   48.48100
      N    N387     5.88900  -19.94500   47.51900
      C    C388     7.05100  -19.54800   48.30400
      C    C389     7.86900  -18.47500   47.59300
      O    O390     8.38000  -17.55100   48.21900
      C    C391     7.94500  -20.76400   48.61500
      C    C392     9.28100  -20.32600   49.22400
      C    C393     7.20500  -21.73300   49.53800
      N    N394     7.99600  -18.61700   46.27900
      C    C395     8.68800  -17.62800   45.48900
      C    C396     8.05200  -16.23700   45.66700
      O    O397     8.76600  -15.26500   45.91700
      C    C398     8.73700  -18.03900   44.01100
      C    C399     9.39400  -16.98800   43.15800
      C    C400    10.75900  -16.73100   43.27300
      C    C401     8.65300  -16.23800   42.25200
      C    C402    11.37100  -15.73800   42.50500
      C    C403     9.25800  -15.24200   41.47700
      C    C404    10.61200  -15.00600   41.60800
      O    O405    11.22200  -14.02600   40.84500
      N    N406     6.72400  -16.15000   45.58200
      C    C407     6.03600  -14.85000   45.72600
      C    C408     6.21400  -14.27200   47.13100
      O    O409     6.32400  -13.06100   47.30400
      C    C410     4.54900  -14.96200   45.37900
      C    C411     4.22900  -15.27400   43.90900
      C    C412     2.78800  -15.75400   43.71900
      C    C413     4.52300  -14.08700   43.00500
      N    N414     6.28400  -15.14600   48.13200
      C    C415     6.27200  -14.69800   49.51600
      C    C416     7.63800  -14.55700   50.19500
      O    O417     7.72100  -13.98500   51.29300
      C    C418     5.34200  -15.58100   50.35000
      C    C419     3.85600  -15.39600   50.05300
      C    C420     3.00100  -16.35500   50.87600
      C    C421     3.42600  -13.95000   50.30200
      N    N422     8.69900  -15.03500   49.54700
      C    C423    10.02900  -15.12100   50.17800
      C    C424    10.81100  -13.79500   50.20300
      O    O425    11.75400  -13.64300   50.96600
      C    C426    10.88800  -16.18200   49.48500
      C    C427    11.29400  -15.78300   48.08400
      C    C428    12.23300  -16.79300   47.45900
      N    N429    13.59400  -16.66900   47.97600
      C    C430    14.57700  -17.51800   47.68200
      N    N431    14.33200  -18.55300   46.88500
      N    N432    15.79800  -17.34000   48.18900
      N    N433    10.44300  -12.86000   49.33900
      C    C434    11.03300  -11.53300   49.37900
      C    C435    10.11000  -10.68000   50.22600
      O    O436     8.93400  -10.53500   49.91800
      C    C437    11.18600  -10.95300   47.97300
      O    O438    11.52100   -9.58100   48.01900
      N    N439    10.62900  -10.14200   51.32900
      C    C440     9.69000   -9.50100   52.25500
      C    C441     8.95500   -8.33500   51.59700
      O    O442     7.75600   -8.15900   51.84300
      C    C443    10.58000   -9.04900   53.42000
      C    C444    11.97800   -9.15200   52.93100
      C    C445    11.98500  -10.23500   51.88200
      N    N446     9.64000   -7.58800   50.73500
      C    C447     8.99700   -6.48100   50.03600
      C    C448     7.89900   -6.99100   49.10300
      O    O449     6.80600   -6.41700   49.03200
      C    C450    10.03700   -5.67600   49.25300
      C    C451     9.46400   -4.45100   48.54000
      C    C452     9.00400   -3.36400   49.51400
      O    O453     9.10800   -3.57600   50.74900
      O    O454     8.55300   -2.29700   49.03400
      N    N455     8.18000   -8.08400   48.39400
      C    C456     7.18900   -8.63100   47.47900
      C    C457     6.01100   -9.21800   48.23200
      O    O458     4.87600   -9.05400   47.81000
      C    C459     7.79200   -9.67900   46.52300
      C    C460     6.90800   -9.92200   45.30900
      O    O461     6.93000   -9.13500   44.36500
      N    N462     6.10100  -10.99300   45.34200
      N    N463     6.28400   -9.92200   49.33800
      C    C464     5.21300  -10.44400   50.18300
      C    C465     4.29300   -9.32900   50.66900
      O    O466     3.07900   -9.44700   50.59200
      C    C467     5.77400  -11.24200   51.38400
      N    N468     4.87400   -8.24800   51.17600
      C    C469     4.06400   -7.12600   51.67000
      C    C470     3.14100   -6.48800   50.60900
      O    O471     1.92900   -6.33000   50.82800
      C    C472     4.97500   -6.05800   52.29000
      C    C473     4.32200   -5.27400   53.39900
      C    C474     4.27000   -3.80400   53.05100
      N    N475     5.55800   -3.30700   52.56400
      C    C476     5.68400   -2.35200   51.64600
      N    N477     4.60300   -1.78900   51.11600
      N    N478     6.88900   -1.95600   51.25800
      N    N479     3.70300   -6.11000   49.46300
      C    C480     2.87900   -5.51700   48.40100
      C    C481     1.78700   -6.48800   47.96900
      O    O482     0.62800   -6.10600   47.80500
      C    C483     3.72400   -5.11600   47.17700
      C    C484     4.93400   -4.24100   47.48200
      C    C485     4.54500   -2.79800   47.67300
      N    N486     4.05900   -2.19000   46.42800
      C    C487     4.82100   -1.51700   45.56900
      N    N488     6.11700   -1.35000   45.81200
      N    N489     4.28900   -1.00800   44.46400
      N    N490     2.14900   -7.75600   47.78800
      C    C491     1.18100   -8.69800   47.25400
      C    C492     0.04800   -8.88500   48.24700
      O    O493    -1.11300   -8.83100   47.86300
      C    C494     1.84400  -10.04400   46.91200
      C    C495     0.94800  -11.23600   46.57200
      C    C496    -0.08100  -10.88100   45.51900
      C    C497     1.79700  -12.39600   46.10100
      N    N498     0.37900   -9.09700   49.52700
      C    C499    -0.67200   -9.40000   50.51500
      C    C500    -1.53400   -8.17000   50.87900
      O    O501    -2.68700   -8.31800   51.28000
      C    C502    -0.11700  -10.12600   51.76200
      C    C503     0.64100  -11.43500   51.43800
      S    S504    -0.34900  -12.55300   50.40800
      C    C505    -1.74900  -12.85100   51.48600
      N    N506    -0.96800   -6.97200   50.73400
      C    C507    -1.75100   -5.72200   50.76900
      C    C508    -2.72600   -5.64300   49.59600
      O    O509    -3.90000   -5.32900   49.77300
      C    C510    -0.83000   -4.49900   50.75300
      C    C511    -0.14400   -4.25100   52.08500
      C    C512     0.45300   -2.86300   52.17400
      O    O513    -0.32200   -1.88700   52.32500
      O    O514     1.69100   -2.74500   52.07300
      N    N515    -2.24800   -5.95100   48.39200
      C    C516    -3.16600   -6.12100   47.27400
      C    C517    -4.23600   -7.15400   47.61600
      O    O518    -5.42300   -6.91500   47.41600
      C    C519    -2.43100   -6.51600   46.00700
      N    N520    -3.82700   -8.29900   48.14700
      C    C521    -4.81100   -9.31600   48.50800
      C    C522    -5.86600   -8.79600   49.49900
      O    O523    -7.05600   -9.03700   49.32200
      C    C524    -4.15200  -10.59300   49.09800
      C    C525    -5.22300  -11.51800   49.66600
      C    C526    -3.31000  -11.31700   48.02700
      N    N527    -5.42200   -8.11600   50.55200
      C    C528    -6.34300   -7.57200   51.54900
      C    C529    -7.35400   -6.59700   50.90800
      O    O530    -8.55600   -6.66900   51.16000
      C    C531    -5.57600   -6.88900   52.67700
      N    N532    -6.88400   -5.69900   50.05800
      C    C533    -7.83200   -4.78000   49.45100
      C    C534    -8.74100   -5.49600   48.46400
      O    O535    -9.91200   -5.16100   48.34000
      C    C536    -7.15000   -3.54000   48.87800
      C    C537    -6.40500   -3.72000   47.59800
      C    C538    -5.76900   -2.37500   47.19900
      N    N539    -4.73500   -1.97900   48.13800
      C    C540    -3.42900   -2.14900   47.94500
      N    N541    -2.96000   -2.68900   46.82600
      N    N542    -2.58000   -1.77100   48.88500
      N    N543    -8.23700   -6.52500   47.79500
      C    C544    -9.12700   -7.28100   46.93300
      C    C545   -10.21500   -7.97000   47.76300
      O    O546   -11.36700   -8.07000   47.33700
      C    C547    -8.36400   -8.31300   46.10600
      C    C548    -9.29100   -9.23800   45.33900
      O    O549    -9.15500  -10.46700   45.48200
      O    O550   -10.16000   -8.74100   44.59800
      N    N551    -9.84900   -8.45800   48.94500
      C    C552   -10.81800   -9.15000   49.78400
      C    C553   -11.89400   -8.18500   50.28400
      O    O554   -13.01100   -8.58700   50.57400
      C    C555   -10.12400   -9.87900   50.94600
      C    C556    -9.57700  -11.27600   50.58200
      C    C557    -8.70900  -11.86500   51.71600
      C    C558    -8.24000  -13.29500   51.40200
      N    N559    -7.26800  -13.87200   52.40700
      N    N560   -11.55800   -6.90600   50.36100
      C    C561   -12.52700   -5.88900   50.75400
      C    C562   -13.35600   -5.42200   49.55300
      O    O563   -14.29800   -4.64400   49.70300
      C    C564   -11.82200   -4.71300   51.42400
      N    N565   -12.98000   -5.89800   48.36600
      C    C566   -13.74200   -5.70400   47.14000
      C    C567   -14.12000   -4.30000   46.68300
      O    O568   -15.08300   -4.14300   45.92300
      N    N569   -13.37700   -3.27900   47.10200
      C    C570   -13.73100   -1.91800   46.70000
      C    C571   -12.55200   -1.00700   46.32600
      O    O572   -12.55800    0.18300   46.64000
      C    C573   -14.59800   -1.25800   47.77800
      C    C574   -13.88900   -1.05700   49.07900
      N    N575   -12.92400   -0.09000   49.25900
      C    C576   -13.99600   -1.70700   50.26300
      C    C577   -12.46900   -0.14900   50.49900
      N    N578   -13.10300   -1.12400   51.12800
      N    N579   -11.55800   -1.55000   45.63400
      C    C580   -10.43600   -0.73500   45.17000
      C    C581   -10.18000   -0.92200   43.68300
      O    O582    -9.58000   -0.06500   43.03500
      C    C583    -9.16100   -1.06600   45.95100
      O    O584    -9.24800   -0.60800   47.29000
      N    N585   -10.63200   -2.04700   43.14300
      C    C586   -10.34100   -2.39200   41.75300
      C    C587   -11.07900   -1.49000   40.76200
      O    O588   -12.19600   -1.03600   41.02800
      C    C589   -10.66300   -3.86300   41.48800
      N    N590   -10.44300   -1.21800   39.62800
      C    C591   -11.10900   -0.49900   38.55000
      C    C592   -10.89100   -1.20100   37.21800
      O    O593   -10.01100   -2.06500   37.10600
      C    C594   -10.65000    0.95300   38.48100
      C    C595    -9.16100    1.13500   38.51400
      C    C596    -8.51400    1.42000   39.71000
      C    C597    -8.41500    1.07400   37.34800
      C    C598    -7.13400    1.62200   39.74800
      C    C599    -7.04500    1.26400   37.37000
      C    C600    -6.40100    1.54200   38.57400
      N    N601   -11.68300   -0.82500   36.21600
      C    C602   -11.74600   -1.58200   34.96300
      C    C603   -10.88700   -1.03900   33.83300
      O    O604   -10.57900    0.15300   33.77500
      C    C605   -13.18500   -1.70900   34.45000
      O    O606   -14.03900   -2.09600   35.53300
      C    C607   -13.26300   -2.76700   33.35600
      N    N608   -10.50100   -1.94000   32.93800
      C    C609    -9.74400   -1.60400   31.74300
      C    C610   -10.10600   -2.63000   30.67600
      O    O611   -10.31700   -3.81000   30.98700
      C    C612    -8.23700   -1.64000   32.01700
      C    C613    -7.72800   -0.58800   33.01200
      C    C614    -7.84700    0.83300   32.45800
      C    C615    -7.53400    1.88300   33.50700
      N    N616    -7.53900    3.27000   32.91700
      N    N617   -10.20000   -2.19000   29.42400
      C    C618   -10.42400   -3.12600   28.32400
      C    C619    -9.06600   -3.60800   27.81600
      O    O620    -8.08500   -2.86600   27.89700
      C    C621   -11.21200   -2.45200   27.19700
      O    O622   -10.45000   -1.41700   26.59800
      N    N623    -8.99200   -4.83600   27.29900
      C    C624    -7.70400   -5.33800   26.81100
      C    C625    -7.26200   -4.62000   25.54000
      O    O626    -6.08200   -4.62700   25.19700
      C    C627    -7.66700   -6.87800   26.59000
      C    C628    -8.40300   -7.59700   27.70600
      C    C629    -8.23400   -7.24900   25.23300
      N    N630    -8.21200   -3.99700   24.84900
      C    C631    -7.88100   -3.19900   23.68200
      C    C632    -7.15900   -1.92700   24.09700
      O    O633    -6.10900   -1.59500   23.54200
      C    C634    -9.12800   -2.88000   22.85500
      C    C635    -9.50200   -4.01000   21.90900
      O    O636    -8.59000   -4.75500   21.47100
      O    O637   -10.70600   -4.15400   21.60500
      N    N638    -7.69400   -1.21800   25.08500
      C    C639    -6.97200   -0.05400   25.57500
      C    C640    -5.61000   -0.42400   26.15100
      O    O641    -4.66300    0.35300   26.03700
      C    C642    -7.79900    0.80400   26.54100
      C    C643    -8.28200    0.13900   27.81000
      C    C644    -8.96600    1.13900   28.73700
      O    O645   -10.05600    0.82500   29.27100
      O    O646    -8.41000    2.24600   28.92700
      N    N647    -5.49800   -1.61300   26.74200
      C    C648    -4.19100   -2.08700   27.18900
      C    C649    -3.25500   -2.33100   25.99500
      O    O650    -2.13900   -1.81300   25.95400
      C    C651    -4.31100   -3.34300   28.06400
      C    C652    -5.12800   -3.25500   29.36500
      C    C653    -5.17700   -4.60900   30.08400
      C    C654    -4.59900   -2.19200   30.31500
      N    N655    -3.69700   -3.11800   25.02200
      C    C656    -2.90500   -3.28500   23.80200
      C    C657    -2.57600   -1.91100   23.18500
      O    O658    -1.45000   -1.65600   22.75800
      C    C659    -3.61800   -4.21300   22.79800
      C    C660    -3.86900   -5.63400   23.33100
      C    C661    -3.87400   -6.71100   22.22100
      N    N662    -4.03900   -8.08400   22.72800
      C    C663    -3.03700   -8.92100   23.02700
      N    N664    -1.76500   -8.54500   22.88100
      N    N665    -3.30300  -10.15100   23.47300
      N    N666    -3.56100   -1.02300   23.17300
      C    C667    -3.37200    0.34600   22.70100
      C    C668    -2.15800    0.98100   23.35900
      O    O669    -1.25500    1.47700   22.68200
      C    C670    -4.61200    1.18600   23.03100
      C    C671    -4.99100    2.20600   21.97900
      C    C672    -4.30900    3.54400   22.17500
      O    O673    -3.91500    3.85600   23.32100
      O    O674    -4.17100    4.28600   21.17500
      N    N675    -2.14200    0.95900   24.68900
      C    C676    -1.09900    1.63300   25.44700
      C    C677     0.28000    1.00900   25.26900
      O    O678     1.28000    1.73100   25.19400
      C    C679    -1.46700    1.69500   26.93100
      C    C680    -2.72700    2.49700   27.21600
      S    S681    -3.21500    2.49500   28.96500
      C    C682    -1.87800    3.45000   29.69000
      N    N683     0.33500   -0.32000   25.21600
      C    C684     1.60600   -1.04100   25.14400
      C    C685     2.21800   -1.01700   23.74600
      O    O686     3.35500   -1.47000   23.54000
      C    C687     1.43000   -2.48200   25.61600
      N    N688     1.45900   -0.49200   22.78900
      C    C689     1.94200   -0.35200   21.42800
      C    C690     2.96900    0.76000   21.28300
      O    O691     4.17300    0.49200   21.21700
