# CIF file generated by openbabel 2.3.2, see http://openbabel.sf.net
data_I
_chemical_name_common '../proteins/pdb/4W4K.pdb'
_cell_length_a 40.98
_cell_length_b 49.48
_cell_length_c 284.35
_cell_angle_alpha 90
_cell_angle_beta 90
_cell_angle_gamma 90
_space_group_name_H-M_alt 'P 2 2 21'
_space_group_name_Hall 'P 2c 2'
loop_
    _symmetry_equiv_pos_as_xyz
    'x,y,z'
    '-x,-y,1/2+z'
    '-x,y,1/2-z'
    'x,-y,-z'
loop_
    _atom_site_type_symbol
    _atom_site_label
    _atom_site_Cartn_x
    _atom_site_Cartn_y
    _atom_site_Cartn_z
      N    N1   -35.58300    2.11700   -5.99700
      C    C2   -34.17800    1.80600   -5.71400
      C    C3   -33.74700    0.44300   -6.25400
      O    O4   -32.70300    0.34600   -6.90100
      C    C5   -34.11900    1.83200   -4.18300
      C    C6   -35.54900    1.61900   -3.71600
      C    C7   -36.47200    1.69100   -4.90400
      N    N8   -34.54100   -0.59000   -5.98600
      C    C9   -34.25300   -1.93400   -6.46900
      C    C10   -34.33000   -1.97400   -7.99200
      O    O11   -33.53100   -2.64100   -8.65100
      C    C12   -35.23100   -2.94500   -5.86200
      C    C13   -35.03100   -4.38100   -6.32900
      C    C14   -33.76200   -5.00900   -5.78200
      O    O15   -33.24000   -4.51300   -4.76100
      O    O16   -33.28700   -6.00200   -6.37300
      N    N17   -35.30000   -1.24700   -8.53800
      C    C18   -35.53200   -1.20700   -9.97600
      C    C19   -34.34700   -0.60400  -10.72500
      O    O20   -34.07000   -0.98100  -11.86200
      C    C21   -36.80400   -0.43000  -10.28000
      N    N22   -33.65200    0.33200  -10.08400
      C    C23   -32.48500    0.96400  -10.68900
      C    C24   -31.32300   -0.01500  -10.78900
      O    O25   -30.58700   -0.01200  -11.77200
      C    C26   -32.06000    2.20000   -9.89600
      C    C27   -32.97300    3.42400   -9.98500
      C    C28   -32.48500    4.53400   -9.06100
      C    C29   -33.06100    3.91500  -11.42300
      N    N30   -31.16000   -0.84800   -9.76700
      C    C31   -30.10200   -1.85100   -9.76900
      C    C32   -30.41200   -2.90300  -10.82900
      O    O33   -29.51700   -3.38300  -11.52900
      C    C34   -29.94100   -2.51500   -8.38700
      O    O35   -29.73800   -1.50300   -7.39300
      C    C36   -28.75200   -3.46500   -8.38100
      N    N37   -31.69000   -3.24900  -10.94300
      C    C38   -32.15200   -4.17700  -11.97100
      C    C39   -31.92500   -3.59400  -13.36200
      O    O40   -31.45600   -4.28600  -14.27100
      C    C41   -33.64800   -4.51600  -11.79400
      C    C42   -34.16400   -5.32200  -12.97800
      C    C43   -33.87600   -5.26500  -10.48300
      N    N44   -32.24900   -2.31500  -13.51900
      C    C45   -32.06100   -1.62700  -14.79200
      C    C46   -30.59200   -1.60700  -15.19100
      O    O47   -30.25800   -1.80300  -16.36000
      C    C48   -32.60800   -0.21300  -14.72100
      N    N49   -29.71800   -1.36900  -14.21600
      C    C50   -28.28200   -1.31900  -14.47400
      C    C51   -27.77300   -2.65000  -15.02200
      O    O52   -26.92400   -2.68200  -15.91500
      C    C53   -27.52900   -0.94400  -13.21300
      N    N54   -28.30600   -3.74700  -14.49400
      C    C55   -27.90600   -5.07700  -14.94200
      C    C56   -28.39200   -5.37700  -16.35900
      O    O57   -27.66400   -5.96200  -17.16500
      C    C58   -28.43400   -6.15700  -13.98700
      O    O59   -27.94700   -5.89400  -12.66900
      C    C60   -27.96600   -7.53400  -14.42300
      N    N61   -29.61600   -4.96300  -16.66700
      C    C62   -30.17200   -5.18600  -17.99500
      C    C63   -29.39700   -4.38200  -19.03500
      O    O64   -29.16600   -4.85200  -20.14800
      C    C65   -31.65700   -4.82700  -18.02300
      C    C66   -32.48800   -5.62400  -17.02000
      C    C67   -33.96400   -5.27900  -17.07000
      O    O68   -34.72500   -5.78700  -16.21900
      O    O69   -34.36400   -4.50100  -17.96100
      N    N70   -28.98700   -3.17500  -18.65600
      C    C71   -28.18000   -2.32400  -19.52100
      C    C72   -26.82400   -2.96600  -19.79000
      O    O73   -26.36100   -3.00700  -20.93500
      C    C74   -27.97800   -0.92400  -18.90300
      C    C75   -26.87200   -0.16900  -19.61500
      C    C76   -29.28000   -0.13600  -18.93400
      N    N77   -26.19100   -3.48100  -18.74100
      C    C78   -24.89600   -4.13600  -18.89500
      C    C79   -25.00300   -5.37800  -19.77300
      O    O80   -24.08700   -5.68800  -20.53800
      C    C81   -24.31300   -4.49500  -17.52900
      C    C82   -23.83800   -3.28500  -16.75500
      C    C83   -23.10200   -3.66600  -15.48000
      N    N84   -22.68600   -2.47700  -14.74400
      C    C85   -23.28300   -2.02500  -13.64600
      N    N86   -24.32100   -2.67300  -13.13200
      N    N87   -22.83200   -0.92800  -13.05500
      N    N88   -26.13000   -6.07500  -19.67300
      C    C89   -26.39000   -7.22300  -20.53300
      C    C90   -26.46100   -6.79300  -21.99400
      O    O91   -25.92500   -7.46000  -22.88200
      C    C92   -27.69200   -7.91600  -20.13200
      C    C93   -27.98200   -9.18100  -20.92100
      C    C94   -29.19900   -9.90600  -20.37800
      N    N95   -29.51400  -11.10000  -21.15800
      C    C96   -30.50600  -11.93700  -20.87300
      N    N97   -31.28600  -11.71100  -19.82400
      N    N98   -30.72100  -12.99900  -21.63800
      N    N99   -27.13100   -5.67100  -22.23100
      C    C100   -27.25600   -5.10400  -23.57100
      C    C101   -25.89900   -4.68300  -24.12700
      O    O102   -25.59300   -4.91400  -25.30800
      C    C103   -28.21800   -3.90500  -23.55500
      C    C104   -29.64900   -4.39900  -23.33500
      C    C105   -28.11300   -3.10000  -24.83300
      C    C106   -30.64600   -3.29600  -23.11700
      N    N107   -25.08500   -4.06800  -23.27600
      C    C108   -23.72800   -3.69100  -23.65400
      C    C109   -22.93600   -4.92400  -24.08800
      O    O110   -22.29700   -4.92100  -25.14200
      C    C111   -23.03200   -2.96500  -22.50100
      C    C112   -21.60100   -2.51800  -22.78100
      C    C113   -20.57700   -3.49400  -22.22200
      N    N114   -19.20800   -3.04400  -22.45700
      C    C115   -18.15200   -3.85000  -22.51000
      N    N116   -18.30100   -5.15800  -22.34300
      N    N117   -16.94500   -3.34900  -22.72900
      N    N118   -22.98300   -5.97400  -23.27200
      C    C119   -22.26400   -7.20900  -23.56900
      C    C120   -22.68900   -7.82000  -24.90300
      O    O121   -21.85000   -8.26200  -25.68300
      C    C122   -22.46700   -8.23800  -22.45300
      C    C123   -21.90800   -7.77600  -21.12400
      O    O124   -21.01400   -6.90500  -21.12000
      O    O125   -22.35500   -8.29600  -20.08100
      N    N126   -23.99400   -7.84200  -25.15600
      C    C127   -24.52600   -8.42700  -26.38300
      C    C128   -24.07800   -7.64400  -27.62200
      O    O129   -23.80700   -8.22800  -28.67700
      C    C130   -26.05300   -8.50000  -26.31700
      C    C131   -26.68300   -9.16800  -27.52200
      C    C132   -28.18300   -9.34500  -27.36000
      N    N133   -28.75800  -10.02100  -28.51900
      C    C134   -30.04600  -10.32100  -28.65100
      N    N135   -30.90500  -10.00600  -27.69000
      N    N136   -30.47300  -10.93900  -29.74500
      N    N137   -24.01300   -6.32300  -27.49000
      C    C138   -23.55900   -5.46300  -28.57500
      C    C139   -22.07600   -5.68700  -28.86300
      O    O140   -21.65700   -5.72800  -30.01700
      C    C141   -23.82300   -4.00600  -28.23600
      N    N142   -21.28900   -5.84200  -27.80300
      C    C143   -19.85500   -6.08200  -27.92500
      C    C144   -19.57100   -7.48000  -28.46300
      O    O145   -18.64200   -7.67500  -29.25300
      C    C146   -19.13300   -5.89700  -26.56300
      C    C147   -19.17900   -4.43000  -26.15100
      C    C148   -17.68100   -6.34300  -26.64900
      C    C149   -18.55200   -3.51000  -27.18300
      N    N150   -20.37000   -8.45200  -28.03500
      N    N151   -20.38000   -8.44700  -28.04100
      C    C152   -20.19400   -9.82900  -28.48000
      C    C153   -20.21200   -9.82900  -28.47300
      C    C154   -20.49500   -9.96100  -29.97300
      C    C155   -20.51300   -9.98600  -29.96200
      O    O156   -19.72700  -10.57600  -30.71000
      O    O157   -19.76200  -10.63500  -30.68600
      C    C158   -21.07600  -10.77900  -27.66500
      C    C159   -21.10800  -10.75800  -27.65300
      C    C160   -20.55600  -11.04000  -26.25200
      C    C161   -20.88300  -12.23600  -27.91700
      C    C162   -21.40100  -12.04000  -25.48400
      C    C163   -21.60600  -13.12100  -26.92000
      O    O164   -21.61800  -11.89100  -24.28100
      O    O165   -22.13600  -12.64200  -25.91400
      N    N166   -21.87800  -13.06700  -26.17500
      N    N167   -21.63000  -14.42000  -27.19200
      N    N168   -21.61200   -9.38400  -30.40900
      C    C169   -22.01800   -9.45500  -31.81000
      C    C170   -21.00200   -8.75500  -32.70700
      O    O171   -20.70700   -9.21800  -33.81200
      C    C172   -23.40300   -8.83500  -32.01000
      O    O173   -23.34300   -7.41900  -31.97000
      N    N174   -20.48000   -7.63200  -32.22500
      C    C175   -19.43400   -6.90800  -32.93100
      C    C176   -18.17800   -7.75700  -33.08600
      O    O177   -17.62500   -7.87500  -34.17600
      C    C178   -19.09900   -5.60800  -32.20100
      C    C179   -17.82200   -4.97200  -32.71000
      O    O180   -17.86700   -4.30500  -33.76200
      O    O181   -16.77200   -5.13800  -32.05700
      N    N182   -17.74100   -8.36100  -31.98600
      C    C183   -16.55000   -9.20000  -32.00300
      C    C184   -16.75000  -10.46600  -32.82700
      O    O185   -15.80400  -10.97900  -33.42300
      C    C186   -16.13800   -9.56200  -30.58600
      N    N187   -17.97900  -10.96800  -32.85700
      C    C188   -18.25500  -12.24600  -33.49700
      C    C189   -18.04600  -12.21300  -35.01200
      O    O190   -17.56600  -13.18500  -35.58400
      C    C191   -19.68500  -12.69300  -33.19900
      C    C192   -20.05800  -14.02400  -33.83600
      C    C193   -19.25200  -15.18500  -33.27900
      O    O194   -18.95000  -15.23300  -32.08300
      N    N195   -18.89500  -16.12800  -34.14700
      N    N196   -18.38400  -11.09700  -35.65100
      C    C197   -18.33300  -11.01600  -37.11800
      C    C198   -17.16100  -10.18000  -37.62400
      O    O199   -16.89700  -10.13400  -38.82900
      C    C200   -19.62900  -10.42500  -37.69300
      C    C201   -20.83400  -11.19900  -37.18400
      C    C202   -19.74500   -8.95800  -37.32600
      N    N203   -16.47000   -9.51700  -36.70100
      C    C204   -15.27300   -8.74200  -37.02000
      C    C205   -14.24700   -9.50500  -37.87900
      O    O206   -13.66400   -8.91200  -38.78200
      C    C207   -14.61000   -8.23700  -35.72600
      N    N208   -14.00900  -10.80600  -37.60200
      C    C209   -13.08400  -11.51700  -38.49500
      C    C210   -13.55700  -11.61700  -39.95200
      O    O211   -12.72700  -11.87700  -40.81600
      C    C212   -12.99400  -12.90900  -37.86900
      C    C213   -13.25700  -12.67300  -36.42100
      C    C214   -14.29400  -11.59800  -36.38600
      N    N215   -14.85500  -11.45800  -40.20200
      C    C216   -15.38800  -11.48800  -41.56700
      C    C217   -15.42900  -10.09500  -42.19500
      O    O218   -15.03800   -9.91700  -43.33900
      C    C219   -16.79300  -12.10100  -41.58800
      C    C220   -16.90500  -13.46600  -40.92300
      S    S221   -15.80500  -14.69900  -41.64300
      C    C222   -16.88200  -15.46800  -42.84500
      N    N223   -15.89000   -9.10700  -41.43900
      C    C224   -16.08700   -7.76400  -41.97500
      C    C225   -14.77100   -7.03300  -42.22900
      O    O226   -14.67000   -6.23100  -43.16100
      C    C227   -16.95100   -6.90600  -41.03200
      O    O228   -16.34900   -6.87000  -39.73100
      C    C229   -18.37000   -7.47000  -40.92500
      N    N230   -13.75700   -7.32900  -41.42300
      C    C231   -12.48100   -6.62900  -41.52400
      C    C232   -11.47800   -7.38600  -42.38800
      O    O233   -10.32100   -6.98400  -42.49800
      C    C234   -11.85000   -6.38200  -40.13300
      O    O235   -11.48700   -7.63200  -39.52800
      C    C236   -12.82000   -5.62900  -39.23200
      N    N237   -11.91700   -8.48300  -42.99800
      C    C238   -11.00700   -9.33300  -43.74900
      C    C239   -11.39500   -9.42400  -45.22000
      O    O240   -10.97500  -10.34400  -45.91700
      C    C241   -10.95900  -10.71500  -43.14200
      N    N242   -12.20500   -8.47700  -45.68100
      C    C243   -12.61700   -8.44300  -47.08100
      C    C244   -11.39200   -8.35500  -47.98300
      O    O245   -10.52700   -7.50400  -47.78000
      C    C246   -13.54800   -7.25700  -47.37600
      C    C247   -13.92800   -7.23200  -48.85500
      C    C248   -14.78800   -7.32400  -46.50300
      N    N249   -11.31000   -9.25600  -48.95700
      C    C250   -10.20800   -9.25700  -49.92000
      C    C251   -10.69800   -8.77200  -51.27900
      O    O252   -11.87100   -8.95800  -51.61600
      C    C253    -9.59000  -10.65300  -50.03700
      C    C254    -9.05700  -11.22600  -48.71400
      C    C255    -7.81300  -10.48800  -48.21000
      N    N256    -8.14200   -9.25700  -47.49600
      C    C257    -7.32400   -8.21500  -47.38600
      N    N258    -6.12000   -8.25000  -47.94600
      N    N259    -7.71200   -7.13600  -46.71900
      N    N260    -9.81400   -8.11900  -52.05300
      C    C261   -10.18900   -7.74800  -53.42400
      C    C262   -10.56100   -8.98800  -54.21700
      O    O263    -9.82800   -9.97400  -54.15700
      C    C264    -8.91500   -7.11000  -53.99300
      C    C265    -8.08800   -6.74300  -52.79500
      C    C266    -8.42300   -7.75300  -51.73800
      N    N267   -11.69600   -8.95500  -54.92600
      C    C268   -12.10300  -10.10500  -55.73800
      C    C269   -11.20800  -10.30900  -56.97000
      O    O270   -11.14900  -11.41900  -57.49900
      C    C271   -13.53300   -9.74800  -56.14900
      C    C272   -13.57600   -8.25700  -56.10500
      C    C273   -12.70000   -7.87700  -54.94600
      N    N274   -10.51800   -9.26000  -57.40900
      C    C275    -9.58700   -9.36300  -58.53600
      C    C276    -8.32700   -8.53800  -58.27200
      O    O277    -8.18500   -7.94300  -57.19900
      C    C278   -10.26400   -8.91900  -59.83300
      N    N279    -7.41000   -8.51000  -59.24000
      C    C280    -6.12500   -7.84100  -59.04600
      C    C281    -6.14300   -6.37500  -59.48500
      O    O282    -5.14800   -5.66500  -59.33500
      C    C283    -5.02400   -8.59000  -59.78900
      N    N284    -7.27800   -5.91900  -60.00500
      C    C285    -7.38800   -4.56000  -60.53200
      C    C286    -7.52100   -3.50900  -59.43400
      O    O287    -7.78300   -3.83900  -58.28200
      C    C288    -8.58100   -4.46700  -61.46600
      C    C289    -9.87800   -4.63800  -60.73500
      O    O290   -10.20900   -5.78800  -60.38800
      O    O291   -10.55500   -3.61900  -60.49300
      N    N292    -7.35000   -2.24100  -59.79900
      C    C293    -7.36700   -1.15900  -58.81500
      C    C294    -8.75400   -0.90600  -58.22200
      O    O295    -8.87600   -0.47600  -57.07000
      C    C296    -6.84300    0.13200  -59.44200
      C    C297    -5.68400    0.80200  -58.70700
      C    C298    -4.53600   -0.18500  -58.53500
      C    C299    -5.22600    2.05200  -59.44300
      N    N300    -9.80100   -1.16400  -59.00100
      C    C301   -11.16100   -0.93800  -58.51300
      C    C302   -11.52400   -1.93900  -57.42300
      O    O303   -12.11300   -1.57200  -56.40600
      C    C304   -12.20100   -1.02200  -59.64500
      C    C305   -13.60200   -0.83100  -59.08700
      C    C306   -11.90700    0.02300  -60.71100
      N    N307   -11.18000   -3.20500  -57.63800
      C    C308   -11.47000   -4.24700  -56.65200
      C    C309   -10.74900   -3.98400  -55.33100
      O    O310   -11.32400   -4.15300  -54.24900
      C    C311   -11.08000   -5.61900  -57.20600
      O    O312   -11.81400   -5.91100  -58.38900
      N    N313    -9.49500   -3.55700  -55.42700
      C    C314    -8.69300   -3.27200  -54.24600
      C    C315    -9.26400   -2.08800  -53.47600
      O    O316    -9.34700   -2.12600  -52.25300
      C    C317    -7.23400   -3.01900  -54.63800
      C    C318    -6.57700   -4.24800  -55.24500
      C    C319    -5.13700   -4.02100  -55.66800
      O    O320    -4.65300   -2.87000  -55.59100
      O    O321    -4.48700   -5.00400  -56.07900
      N    N322    -9.67700   -1.04500  -54.18800
      C    C323   -10.25100    0.11700  -53.52000
      C    C324   -11.57400   -0.23000  -52.83900
      O    O325   -11.85800    0.26300  -51.74800
      C    C326   -10.44700    1.27400  -54.50300
      C    C327    -9.15200    1.99000  -54.85300
      C    C328    -9.41200    3.27300  -55.61700
      C    C329    -8.11000    3.98800  -55.94100
      N    N330    -8.33200    5.17700  -56.80900
      N    N331   -12.38000   -1.08100  -53.46400
      C    C332   -13.62200   -1.51600  -52.82400
      C    C333   -13.32900   -2.29300  -51.53500
      O    O334   -13.92200   -2.02500  -50.47700
      C    C335   -14.44600   -2.36000  -53.77900
      N    N336   -12.40300   -3.24500  -51.61900
      C    C337   -12.03100   -4.05300  -50.45800
      C    C338   -11.49000   -3.18300  -49.33100
      O    O339   -11.89200   -3.32600  -48.17200
      C    C340   -11.00600   -5.10300  -50.84500
      N    N341   -10.57500   -2.28500  -49.68100
      C    C342    -9.97900   -1.37700  -48.70900
      C    C343   -11.03500   -0.54100  -48.00200
      O    O344   -10.99500   -0.38300  -46.78300
      C    C345    -8.95200   -0.44700  -49.37300
      O    O346    -7.88000   -1.23500  -49.90400
      C    C347    -8.39100    0.53900  -48.36300
      N    N348   -11.98300   -0.01300  -48.76900
      C    C349   -13.06600    0.77500  -48.19400
      C    C350   -13.87300   -0.05100  -47.19200
      O    O351   -14.11700    0.38900  -46.06500
      C    C352   -13.98900    1.31300  -49.29200
      C    C353   -15.02300    2.28200  -48.78800
      C    C354   -16.19500    1.83200  -48.19500
      C    C355   -14.82100    3.64500  -48.90700
      C    C356   -17.14100    2.72400  -47.72700
      C    C357   -15.76400    4.54400  -48.44300
      C    C358   -16.92700    4.08100  -47.85200
      N    N359   -14.29000   -1.24500  -47.60400
      C    C360   -15.16500   -2.06800  -46.76900
      C    C361   -14.49800   -2.48100  -45.45600
      O    O362   -15.16100   -2.59600  -44.42400
      C    C363   -15.61400   -3.30300  -47.54600
      C    C364   -16.52700   -2.98600  -48.73300
      C    C365   -16.77300   -4.22700  -49.55800
      C    C366   -17.84300   -2.42200  -48.22200
      N    N367   -13.18700   -2.69200  -45.50500
      C    C368   -12.41200   -3.01900  -44.31500
      C    C369   -12.34600   -1.82500  -43.36800
      O    O370   -12.58100   -1.96200  -42.16600
      C    C371   -10.98500   -3.47000  -44.68200
      C    C372   -10.08800   -3.44500  -43.45600
      C    C373   -11.01800   -4.85700  -45.28900
      N    N374   -12.02800   -0.65500  -43.91300
      C    C375   -11.96800    0.56800  -43.11700
      C    C376   -13.32500    0.92100  -42.51900
      O    O377   -13.40600    1.42200  -41.39700
      C    C378   -11.44500    1.73300  -43.96100
      C    C379    -9.93500    1.72200  -44.15700
      C    C380    -9.17700    1.90400  -42.84600
      O    O381    -9.72100    2.55100  -41.92400
      O    O382    -8.03900    1.39700  -42.73600
      N    N383   -14.38500    0.66000  -43.27600
      C    C384   -15.75000    0.89600  -42.81800
      C    C385   -16.06600    0.00900  -41.62000
      O    O386   -16.69000    0.44900  -40.64800
      C    C387   -16.73800    0.63100  -43.95900
      C    C388   -18.10300    1.26800  -43.79700
      C    C389   -18.24100    2.64500  -43.67500
      C    C390   -19.25600    0.49200  -43.79800
      C    C391   -19.49200    3.23000  -43.54000
      C    C392   -20.50700    1.06700  -43.66300
      C    C393   -20.61800    2.43600  -43.54000
      O    O394   -21.86200    3.01200  -43.41700
      N    N395   -15.62600   -1.24300  -41.69300
      C    C396   -15.82600   -2.18300  -40.59600
      C    C397   -15.05900   -1.73900  -39.35800
      O    O398   -15.57100   -1.82500  -38.23700
      C    C399   -15.40300   -3.58400  -41.01100
      N    N400   -13.82900   -1.27800  -39.55900
      N    N401   -13.83100   -1.27000  -39.56300
      C    C402   -13.01000   -0.80000  -38.45300
      C    C403   -13.00100   -0.78700  -38.46400
      C    C404   -13.66500    0.40100  -37.77000
      C    C405   -13.64600    0.41100  -37.77500
      O    O406   -13.67700    0.49800  -36.53700
      O    O407   -13.63600    0.51400  -36.54400
      C    C408   -11.60400   -0.43400  -38.93700
      C    C409   -11.60400   -0.41200  -38.96500
      C    C410   -10.80000   -1.61300  -39.46600
      C    C411   -10.79300   -1.58000  -39.50100
      C    C412    -9.30800   -1.29800  -39.51400
      C    C413    -9.39700   -1.13400  -39.92100
      N    N414    -8.60700   -2.09900  -40.51700
      N    N415    -8.71500   -2.14600  -40.72200
      C    C416    -8.19000   -3.34800  -40.32800
      C    C417    -7.49000   -2.00800  -41.21900
      N    N418    -8.40400   -3.95500  -39.16800
      N    N419    -6.80300   -0.89600  -40.99300
      N    N420    -7.56100   -3.99100  -41.30300
      N    N421    -6.95000   -2.98200  -41.93900
      N    N422   -14.20500    1.31400  -38.57400
      C    C423   -14.87300    2.49800  -38.04100
      C    C424   -16.16100    2.12500  -37.31000
      O    O425   -16.50200    2.74000  -36.29200
      C    C426   -15.16600    3.50500  -39.15200
      C    C427   -13.92300    4.19600  -39.69900
      C    C428   -14.27000    5.11100  -40.86600
      C    C429   -13.06900    5.93100  -41.31500
      N    N430   -11.94700    5.07700  -41.79400
      N    N431   -16.87000    1.11300  -37.80500
      C    C432   -18.04600    0.63000  -37.08100
      C    C433   -17.66700    0.07500  -35.70600
      O    O434   -18.38400    0.30500  -34.72200
      C    C435   -18.79700   -0.44500  -37.87200
      C    C436   -19.91800   -1.07300  -37.06300
      C    C437   -21.15600   -0.45400  -36.95700
      C    C438   -19.73600   -2.28300  -36.40400
      C    C439   -22.18100   -1.02100  -36.21500
      C    C440   -20.75400   -2.85800  -35.66200
      C    C441   -21.97500   -2.22500  -35.57500
      O    O442   -22.98900   -2.79300  -34.83100
      N    N443   -16.56100   -0.66300  -35.62700
      C    C444   -16.15900   -1.24600  -34.33700
      C    C445   -15.85000   -0.16100  -33.31400
      O    O446   -16.15500   -0.30800  -32.11900
      C    C447   -14.94800   -2.17100  -34.49200
      C    C448   -15.19500   -3.36900  -35.39400
      C    C449   -14.26700   -4.52300  -35.05300
      N    N450   -14.61700   -5.12500  -33.76700
      C    C451   -13.81000   -5.90700  -33.05800
      N    N452   -12.59000   -6.18600  -33.49800
      N    N453   -14.22300   -6.41100  -31.90400
      N    N454   -15.25300    0.93100  -33.78200
      C    C455   -14.95900    2.06300  -32.90800
      C    C456   -16.23700    2.74000  -32.43800
      O    O457   -16.31000    3.24800  -31.31300
      C    C458   -14.06300    3.07500  -33.61700
      C    C459   -12.68600    2.54200  -33.93800
      C    C460   -11.76000    3.61700  -34.46100
      O    O461   -12.06800    4.29900  -35.44100
      N    N462   -10.61900    3.78300  -33.80100
      N    N463   -17.23700    2.74900  -33.31100
      C    C464   -18.53900    3.31300  -32.98700
      C    C465   -19.23200    2.48900  -31.90500
      O    O466   -19.82300    3.04500  -30.97900
      C    C467   -19.44000    3.39500  -34.23200
      O    O468   -18.84000    4.26900  -35.19400
      C    C469   -20.81000    3.93100  -33.86600
      N    N470   -19.15900    1.16600  -32.02000
      C    C471   -19.77200    0.29400  -31.02200
      C    C472   -19.06000    0.38000  -29.66900
      O    O473   -19.70900    0.40700  -28.62000
      C    C474   -19.79200   -1.16400  -31.49600
      C    C475   -20.77500   -1.30200  -32.64800
      C    C476   -20.22100   -2.09500  -30.36900
      C    C477   -22.18600   -0.88500  -32.29300
      N    N478   -17.73200    0.44600  -29.69600
      C    C479   -16.95100    0.60000  -28.47000
      C    C480   -17.35000    1.87800  -27.74300
      O    O481   -17.43000    1.90800  -26.51300
      C    C482   -15.46200    0.60600  -28.78100
      N    N483   -17.61600    2.93200  -28.50900
      C    C484   -18.08100    4.18600  -27.92800
      C    C485   -19.47100    4.00900  -27.32500
      O    O486   -19.77600    4.56400  -26.27400
      C    C487   -18.08700    5.29100  -28.97200
      N    N488   -20.31500    3.24000  -28.00600
      C    C489   -21.65400    2.95300  -27.50300
      C    C490   -21.57600    2.11400  -26.23300
      O    O491   -22.38200    2.27800  -25.31400
      C    C492   -22.48200    2.24200  -28.56900
      N    N493   -20.60100    1.21400  -26.18300
      C    C494   -20.39500    0.38700  -25.00100
      C    C495   -20.05000    1.26200  -23.80300
      O    O496   -20.51100    1.01800  -22.68700
      C    C497   -19.30200   -0.63100  -25.24800
      N    N498   -19.24200    2.28800  -24.04900
      C    C499   -18.87700    3.25100  -23.01700
      C    C500   -20.09600    4.02400  -22.52500
      O    O501   -20.30000    4.16800  -21.31800
      C    C502   -17.81200    4.23700  -23.53900
      C    C503   -17.66400    5.42500  -22.60900
      C    C504   -16.48000    3.51900  -23.74400
      N    N505   -20.91800    4.49600  -23.45800
      C    C506   -22.13600    5.22600  -23.10900
      C    C507   -23.06900    4.37200  -22.25300
      O    O508   -23.61600    4.84300  -21.25200
      C    C509   -22.89200    5.70000  -24.37300
      C    C510   -24.26600    6.24400  -24.01100
      C    C511   -22.08000    6.74700  -25.11800
      N    N512   -23.23200    3.11000  -22.64000
      C    C513   -24.09700    2.19000  -21.90900
      C    C514   -23.57300    1.91900  -20.50200
      O    O515   -24.34900    1.86300  -19.55000
      C    C516   -24.25100    0.87500  -22.67200
      C    C517   -25.10400    0.94700  -23.94600
      C    C518   -25.04500   -0.36700  -24.71200
      C    C519   -26.54700    1.33500  -23.64100
      N    N520   -22.26000    1.74800  -20.37400
      C    C521   -21.65100    1.47800  -19.07200
      C    C522   -21.74600    2.68500  -18.14100
      O    O523   -21.97900    2.53300  -16.93900
      C    C524   -20.18900    1.06500  -19.24600
      C    C525   -20.00800   -0.34100  -19.80000
      C    C526   -18.54600   -0.75200  -19.90500
      O    O527   -18.10200   -1.07300  -21.03200
      O    O528   -17.84200   -0.74700  -18.87000
      N    N529   -21.56300    3.88000  -18.69500
      C    C530   -21.71800    5.11300  -17.92400
      C    C531   -23.14700    5.24300  -17.41000
      O    O532   -23.38500    5.66200  -16.27500
      C    C533   -21.35200    6.33000  -18.77300
      C    C534   -19.87000    6.45900  -19.07600
      C    C535   -19.58400    7.49900  -20.14500
      O    O536   -20.53100    7.90100  -20.85500
      O    O537   -18.41300    7.91000  -20.28400
      N    N538   -24.09200    4.87200  -18.26600
      C    C539   -25.51000    4.90600  -17.93700
      C    C540   -25.84000    3.91400  -16.82500
      O    O541   -26.57600    4.24200  -15.89500
      C    C542   -26.33900    4.62100  -19.19400
      C    C543   -27.82300    4.62800  -18.96700
      C    C544   -28.41100    5.57000  -18.13900
      C    C545   -28.63500    3.71000  -19.61400
      C    C546   -29.78000    5.58000  -17.94000
      C    C547   -30.00100    3.71600  -19.42600
      C    C548   -30.57600    4.65200  -18.58800
      N    N549   -25.28700    2.70800  -16.91200
      C    C550   -25.49500    1.71100  -15.86300
      C    C551   -24.88200    2.18200  -14.54600
      O    O552   -25.42700    1.93300  -13.46200
      C    C553   -24.91000    0.37200  -16.27700
      N    N554   -23.75200    2.87300  -14.64700
      C    C555   -23.07500    3.40900  -13.47200
      C    C556   -23.92100    4.49900  -12.82200
      O    O557   -23.95200    4.63000  -11.59700
      C    C558   -21.69500    3.95400  -13.85000
      C    C559   -20.95300    4.57300  -12.70700
      N    N560   -20.64000    5.91400  -12.66300
      C    C561   -20.46700    4.03500  -11.56400
      C    C562   -19.99200    6.17600  -11.54200
      N    N563   -19.87300    5.05300  -10.85700
      N    N564   -24.61000    5.27600  -13.65200
      C    C565   -25.49900    6.31900  -13.16100
      C    C566   -26.73600    5.69300  -12.53400
      O    O567   -27.31000    6.23600  -11.59200
      C    C568   -25.88700    7.26800  -14.28600
      N    N569   -27.15100    4.55100  -13.07200
      C    C570   -28.26100    3.80000  -12.49800
      C    C571   -27.87300    3.21500  -11.14200
      O    O572   -28.67600    3.19300  -10.20800
      C    C573   -28.69900    2.68500  -13.45100
      C    C574   -29.34900    3.13500  -14.76200
      C    C575   -29.57500    1.95500  -15.70000
      C    C576   -30.65200    3.85800  -14.48200
      N    N577   -26.62900    2.75200  -11.04300
      C    C578   -26.10900    2.17900   -9.80700
      C    C579   -25.83500    3.24900   -8.75600
      O    O580   -26.16400    3.07700   -7.58300
      C    C581   -24.81000    1.38800  -10.06200
      O    O582   -25.04600    0.38500  -11.05700
      C    C583   -24.32700    0.72100   -8.78400
      N    N584   -25.23200    4.35500   -9.18100
      C    C585   -24.96000    5.46500   -8.27700
      C    C586   -26.26500    6.12000   -7.84500
      O    O587   -26.42100    6.50400   -6.68700
      C    C588   -24.03500    6.51700   -8.92000
      O    O589   -22.77400    5.91400   -9.23300
      C    C590   -23.79600    7.67900   -7.96700
      N    N591   -27.20900    6.22300   -8.77300
      C    C592   -28.50400    6.80400   -8.47200
      C    C593   -29.25700    6.00900   -7.42100
      O    O594   -29.95500    6.57900   -6.58300
      N    N595   -29.10700    4.68900   -7.45600
      C    C596   -29.78300    3.82000   -6.49800
      C    C597   -29.18600    3.95500   -5.09700
      O    O598   -29.91200    3.97300   -4.10100
      C    C599   -29.72000    2.37300   -6.96300
      N    N600   -27.86200    4.05200   -5.02800
      C    C601   -27.16000    4.13200   -3.75000
      C    C602   -27.19800    5.54000   -3.15900
      O    O603   -27.31600    5.71000   -1.94500
      C    C604   -25.70700    3.67600   -3.91200
      C    C605   -25.59400    2.21600   -4.30900
      O    O606   -26.44500    1.41200   -3.87300
      O    O607   -24.65300    1.87100   -5.05500
      N    N608   -27.09400    6.54500   -4.02300
      C    C609   -27.07200    7.93800   -3.58600
      C    C610   -28.43800    8.38500   -3.07600
      O    O611   -28.53300    9.12700   -2.09700
      C    C612   -26.61200    8.84500   -4.73000
      C    C613   -26.53900   10.32400   -4.39900
      C    C614   -26.06400   11.11400   -5.61000
      C    C615   -26.00800   12.60500   -5.32600
      N    N616   -25.53900   13.37200   -6.51400
      N    N617   -29.49400    7.92400   -3.73900
      C    C618   -30.85000    8.32400   -3.38100
      C    C619   -31.50600    7.28800   -2.47400
      O    O620   -32.71000    7.04500   -2.55400
      C    C621   -31.69000    8.54700   -4.63900
      C    C622   -31.06700    9.52700   -5.61100
      C    C623   -30.34800   10.62700   -5.15600
      C    C624   -31.18400    9.34500   -6.98400
      C    C625   -29.77100   11.52200   -6.03800
      C    C626   -30.60800   10.23300   -7.87500
      C    C627   -29.90400   11.32000   -7.39800
      O    O628   -29.33200   12.20600   -8.28300
      N    N629   -30.69400    6.68100   -1.61400
      C    C630   -31.17900    5.75500   -0.59900
      C    C631   -30.54700    6.10000    0.74300
      O    O632   -30.92500    5.55900    1.78300
      C    C633   -30.86800    4.31900   -0.98600
      N    N634   -29.58000    7.01200    0.70500
      C    C635   -28.88100    7.45400    1.90400
      C    C636   -29.33700    8.84800    2.32300
      O    O637   -30.36600    9.00400    2.98100
      C    C638   -27.35500    7.46400    1.69300
      O    O639   -26.91400    6.15600    1.30700
      C    C640   -26.64100    7.88000    2.97000
