# CIF file generated by openbabel 2.3.2, see http://openbabel.sf.net
data_I
_chemical_name_common '../proteins/pdb/5CCA.pdb'
_cell_length_a 105.555
_cell_length_b 105.555
_cell_length_c 142.417
_cell_angle_alpha 90
_cell_angle_beta 90
_cell_angle_gamma 120
_space_group_name_H-M_alt 'P 64 2 2'
_space_group_name_Hall 'P 64 2c (0 0 -1)'
loop_
    _symmetry_equiv_pos_as_xyz
    'x,y,z'
    '-y,x-y,1/3+z'
    '-x+y,-x,2/3+z'
    '-x,-y,z'
    'y,-x+y,1/3+z'
    'x-y,x,2/3+z'
    'y,x,1/3-z'
    'x-y,-y,-z'
    '-x,-x+y,2/3-z'
    '-y,-x,1/3-z'
    '-x+y,y,-z'
    'x,x-y,2/3-z'
loop_
    _atom_site_type_symbol
    _atom_site_label
    _atom_site_Cartn_x
    _atom_site_Cartn_y
    _atom_site_Cartn_z
      N    N1   -57.03000   27.36400  -38.23400
      C    C2   -56.44500   28.72400  -37.97900
      C    C3   -55.26000   29.01100  -38.90200
      O    O4   -55.05200   28.33200  -39.86500
      C    C5   -56.03700   28.83200  -36.49400
      C    C6   -57.20000   28.96400  -35.54300
      S    S7   -56.74400   28.87800  -33.79800
      C    C8   -58.26100   29.29200  -32.90100
      N    N9   -54.46800   30.01500  -38.57100
      C    C10   -53.52100   30.64000  -39.50700
      C    C11   -52.02300   30.53400  -39.15800
      O    O12   -51.49300   31.47500  -38.61900
      C    C13   -53.87700   32.13100  -39.50600
      C    C14   -55.22300   32.54800  -40.19300
      C    C15   -55.47600   34.05600  -40.33900
      N    N16   -56.41000   34.47500  -41.40200
      C    C17   -56.99600   35.67500  -41.44200
      N    N18   -56.75600   36.58200  -40.48200
      N    N19   -57.82300   35.98600  -42.44300
      N    N20   -51.35700   29.39400  -39.35100
      C    C21   -49.90000   29.32300  -38.99400
      C    C22   -49.03500   30.26800  -39.77900
      O    O23   -49.02100   30.24100  -40.98000
      C    C24   -49.47300   27.84600  -39.27600
      C    C25   -50.74600   27.10900  -39.11100
      C    C26   -51.86500   28.05600  -39.64100
      N    N27   -48.29400   31.08700  -39.05800
      C    C28   -47.49700   32.18400  -39.59800
      C    C29   -46.08600   32.00700  -39.06700
      O    O30   -45.78500   31.04500  -38.36900
      C    C31   -48.16500   33.56100  -39.25000
      C    C32   -49.59300   33.61500  -39.76700
      C    C33   -47.58500   34.68000  -40.01500
      C    C34   -50.32600   34.90900  -39.60400
      N    N35   -45.19300   32.89200  -39.43900
      C    C36   -43.77500   32.74700  -39.08400
      C    C37   -43.32200   33.91800  -38.21400
      O    O38   -43.65900   35.02600  -38.51300
      C    C39   -42.95000   32.63000  -40.36600
      C    C40   -41.51500   32.29000  -40.13100
      N    N41   -41.09700   31.42800  -39.13200
      C    C42   -40.38200   32.70200  -40.76600
      C    C43   -39.76800   31.34500  -39.13900
      N    N44   -39.31000   32.11800  -40.11300
      N    N45   -42.59300   33.68100  -37.13200
      C    C46   -42.27200   34.75000  -36.16700
      C    C47   -40.96900   34.62400  -35.44100
      O    O48   -40.58800   33.55300  -35.13300
      C    C49   -43.36700   34.87300  -35.16500
      N    N50   -40.27100   35.73500  -35.22600
      C    C51   -38.96800   35.75900  -34.51400
      C    C52   -39.15800   35.82400  -32.95300
      O    O53   -40.02800   36.71600  -32.60800
      C    C54   -38.04400   36.87100  -35.09700
      N    N55   -36.21500   32.41600  -35.09900
      C    C56   -37.32100   32.34900  -36.09000
      C    C57   -38.04300   31.03300  -36.06000
      O    O58   -37.45000   30.00400  -36.30300
      C    C59   -36.98500   32.74100  -37.54100
      N    N60   -39.33100   31.04700  -35.71000
      C    C61   -40.10800   29.83300  -35.58500
      C    C62   -41.48700   29.93000  -36.19000
      O    O63   -42.11500   30.99300  -36.17700
      C    C64   -40.25900   29.47500  -34.10400
      C    C65   -39.09600   28.76300  -33.43800
      C    C66   -39.61300   28.11800  -32.15800
      N    N67   -38.74000   27.10500  -31.58700
      C    C68   -38.52400   25.89900  -32.12500
      N    N69   -39.08300   25.54800  -33.29200
      N    N70   -37.70200   25.04300  -31.50100
      N    N71   -41.99800   28.80400  -36.70600
      C    C72   -43.40400   28.68700  -37.11300
      C    C73   -44.31300   28.69400  -35.88800
      O    O74   -44.04600   27.98200  -34.90800
      C    C75   -43.46700   27.31600  -37.78200
      C    C76   -42.29800   26.59800  -37.28900
      C    C77   -41.23500   27.57100  -36.96200
      N    N78   -45.34300   29.52500  -35.91800
      C    C79   -46.25900   29.60600  -34.80500
      C    C80   -47.68600   29.45400  -35.28400
      O    O81   -47.98500   29.78500  -36.41400
      C    C82   -46.10700   30.95200  -34.04100
      C    C83   -44.66700   31.12700  -33.60500
      C    C84   -46.54700   32.11800  -34.88900
      N    N85   -48.57700   29.01500  -34.38500
      C    C86   -50.00100   28.96900  -34.67000
      C    C87   -50.73200   30.12500  -34.00200
      O    O88   -50.64500   30.29800  -32.78300
      C    C89   -50.56500   27.64100  -34.22000
      C    C90   -52.09200   27.48600  -34.36400
      C    C91   -52.59900   27.69800  -35.77600
      C    C92   -52.55100   26.12800  -33.90300
      N    N93   -51.44500   30.91600  -34.80300
      C    C94   -52.13700   32.06500  -34.24200
      C    C95   -53.32700   31.68000  -33.39200
      O    O96   -54.34700   31.20400  -33.91200
      C    C97   -52.63300   33.01400  -35.34600
      C    C98   -51.48700   33.48700  -36.24000
      C    C99   -53.41600   34.18900  -34.72000
      C    C100   -50.42100   34.19300  -35.49400
      N    N101   -53.19600   31.89500  -32.09400
      C    C102   -54.25200   31.57600  -31.16400
      C    C103   -55.25900   32.71200  -31.04900
      O    O104   -56.46500   32.46600  -30.97200
      C    C105   -53.66200   31.24400  -29.80500
      C    C106   -52.78100   30.01400  -29.77000
      C    C107   -52.34400   29.70600  -28.35300
      C    C108   -53.50600   28.84100  -30.38700
      N    N109   -54.77600   33.95300  -31.04400
      C    C110   -55.64800   35.11300  -31.00700
      C    C111   -56.74300   35.03600  -32.05700
      O    O112   -56.46000   34.73000  -33.21200
      C    C113   -54.84600   36.41600  -31.19100
      O    O114   -53.79500   36.47200  -30.19700
      C    C115   -55.77900   37.67500  -31.11200
      N    N116   -57.98600   35.28100  -31.65300
      C    C117   -59.12700   35.27800  -32.57100
      C    C118   -58.89600   36.28900  -33.67000
      O    O119   -58.29900   37.33900  -33.42700
      C    C120   -60.42700   35.56300  -31.83600
      C    C121   -60.54300   36.95200  -31.24400
      C    C122   -61.28600   36.91200  -29.92900
      N    N123   -61.17500   38.17900  -29.21100
      C    C124   -60.09000   38.58000  -28.55300
      N    N125   -59.00000   37.82900  -28.53600
      N    N126   -60.07700   39.74600  -27.93300
      N    N127   -59.34000   35.95900  -34.88400
      C    C128   -58.98100   36.74000  -36.09000
      C    C129   -59.69800   38.08000  -36.17100
      O    O130   -59.23700   39.00500  -36.83300
      C    C131   -59.27600   35.93200  -37.36000
      C    C132   -60.49200   36.04700  -37.77800
      C    C133   -61.44600   35.43900  -36.76000
      O    O134   -62.66300   35.68700  -36.87600
      O    O135   -60.98900   34.71400  -35.84900
      N    N136   -60.83200   38.15700  -35.48800
      C    C137   -61.68300   39.33600  -35.50600
      C    C138   -60.95800   40.61000  -35.03700
      O    O139   -61.01900   41.65700  -35.69800
      C    C140   -62.91100   39.14600  -34.61800
      C    C141   -63.98200   40.10000  -35.11900
      C    C142   -63.35300   37.66600  -34.54600
      N    N143   -60.28100   40.51800  -33.89300
      C    C144   -59.65700   41.68200  -33.26200
      C    C145   -58.18500   41.86200  -33.64800
      O    O146   -57.50600   42.79200  -33.15100
      C    C147   -59.74900   41.61700  -31.72800
      C    C148   -61.18700   41.45600  -31.28200
      C    C149   -58.89400   40.49800  -31.18400
      N    N150   -57.69600   40.97000  -34.51000
      C    C151   -56.29500   40.95900  -34.89500
      C    C152   -55.75700   42.31500  -35.36200
      O    O153   -54.69100   42.74300  -34.88800
      C    C154   -56.06800   39.89500  -35.98600
      C    C155   -55.89300   38.47100  -35.48100
      C    C156   -54.45500   38.19800  -35.06200
      N    N157   -53.51100   38.42000  -36.14800
      C    C158   -53.33100   37.59100  -37.19000
      N    N159   -54.03700   36.46100  -37.31800
      N    N160   -52.44500   37.90200  -38.13300
      N    N161   -56.48000   43.00600  -36.28700
      C    C162   -55.92200   44.30100  -36.72600
      C    C163   -56.01700   45.39600  -35.66300
      O    O164   -55.37400   46.43700  -35.81500
      C    C165   -56.81400   44.67100  -37.91100
      C    C166   -58.12000   43.98600  -37.63900
      C    C167   -57.72600   42.68300  -37.02300
      N    N168   -56.79800   45.15000  -34.60700
      C    C169   -57.03900   46.15100  -33.58900
      C    C170   -56.16300   45.94100  -32.36300
      O    O171   -56.41500   46.50700  -31.29100
      C    C172   -58.51000   46.15400  -33.18200
      C    C173   -59.45300   46.30400  -34.32900
      N    N174   -59.58500   47.48100  -35.04400
      C    C175   -60.30300   45.41700  -34.89800
      C    C176   -60.46200   47.30400  -36.01400
      N    N177   -60.92800   46.06900  -35.93300
      N    N178   -55.11500   45.14300  -32.51500
      C    C179   -54.21400   44.86600  -31.40100
      C    C180   -52.78400   44.95800  -31.83600
      O    O181   -52.45800   44.62900  -32.99300
      C    C182   -54.49600   43.47500  -30.81500
      C    C183   -55.77300   43.30700  -29.99900
      C    C184   -55.90100   41.88600  -29.48900
      C    C185   -55.74000   44.30100  -28.84800
      N    N186   -51.94600   45.40200  -30.90400
      C    C187   -50.53400   45.55800  -31.20100
      C    C188   -49.80300   44.25600  -30.82700
      O    O189   -48.56800   44.13600  -30.98400
      C    C190   -49.91300   46.74900  -30.46700
      O    O191   -49.96800   46.50800  -29.05900
      C    C192   -50.67100   48.00800  -30.79000
      N    N193   -50.56500   43.29800  -30.31700
      C    C194   -50.01400   42.01000  -29.94800
      C    C195   -50.89400   40.86500  -30.42500
      O    O196   -52.05900   41.05800  -30.83200
      C    C197   -49.83400   41.91100  -28.42900
      C    C198   -48.78700   42.85800  -27.91500
      O    O199   -49.05800   44.05200  -27.79800
      N    N200   -47.58000   42.34400  -27.61100
      N    N201   -50.31200   39.66900  -30.38300
      C    C202   -50.96900   38.46400  -30.88100
      C    C203   -50.47600   37.27200  -30.08100
      O    O204   -49.29400   37.14700  -29.83300
      C    C205   -50.76600   38.26900  -32.39400
      C    C206   -49.30300   38.37900  -32.75000
      C    C207   -51.34300   36.95000  -32.87200
      N    N208   -51.41500   36.43100  -29.64800
      C    C209   -51.08200   35.25500  -28.87900
      C    C210   -50.90000   34.06900  -29.85000
      O    O211   -51.78200   33.72300  -30.64000
      C    C212   -52.14000   34.91800  -27.83400
      O    O213   -52.53300   36.10000  -27.16200
      C    C214   -51.59900   33.95700  -26.81000
      N    N215   -49.73400   33.45200  -29.77200
      C    C216   -49.36800   32.38800  -30.65700
      C    C217   -48.83200   31.20000  -29.90000
      O    O218   -48.47400   31.31700  -28.72700
      C    C219   -48.28100   32.84600  -31.63700
      C    C220   -48.80400   33.98500  -32.49200
      C    C221   -47.01100   33.26400  -30.89700
      N    N222   -48.75800   30.05400  -30.58400
      C    C223   -48.21900   28.84000  -29.98100
      C    C224   -47.16000   28.28100  -30.87100
      O    O225   -47.42800   27.95100  -32.00900
      C    C226   -49.29700   27.80800  -29.76200
      N    N227   -45.92900   28.16300  -30.36200
      C    C228   -44.80200   27.73700  -31.18500
      C    C229   -44.97200   26.31400  -31.69200
      O    O230   -45.83500   25.56100  -31.22000
      C    C231   -43.60600   27.78200  -30.20300
      C    C232   -44.20700   27.60800  -28.87700
      C    C233   -45.51900   28.34100  -28.96200
      N    N234   -44.15100   25.96500  -32.68000
      C    C235   -44.15800   24.61800  -33.24700
      C    C236   -42.74700   24.08000  -33.24800
      O    O237   -41.81500   24.73300  -33.75200
      C    C238   -44.77100   24.62500  -34.64400
      C    C239   -46.23900   25.06000  -34.52000
      C    C240   -44.70500   23.25400  -35.24000
      C    C241   -46.99600   25.34500  -35.72700
      N    N242   -42.57500   22.92100  -32.62800
      C    C243   -41.25500   22.30200  -32.55500
      C    C244   -41.26900   20.94500  -33.24100
      O    O245   -42.26800   20.25000  -33.26700
      C    C246   -40.77100   22.14300  -31.09700
      O    O247   -39.57300   21.37600  -31.07800
      C    C248   -41.76600   21.43600  -30.27700
      N    N249   -40.13300   20.58300  -33.79000
      C    C250   -39.95700   19.27400  -34.38600
      C    C251   -39.86200   18.21000  -33.27500
      O    O252   -40.25900   17.07100  -33.46900
      C    C253   -38.69900   19.22000  -35.23600
      O    O254   -37.54500   19.28900  -34.37400
      C    C255   -38.68600   20.32200  -36.24300
      N    N256   -39.35200   18.59500  -32.12000
      C    C257   -39.24200   17.67300  -31.00800
      C    C258   -40.63800   17.29500  -30.45300
      O    O259   -41.22300   18.03300  -29.66100
      C    C260   -38.37200   18.27300  -29.88100
      O    O261   -39.09500   19.33100  -29.23300
      C    C262   -37.07300   18.86300  -30.45600
      N    N263   -41.17800   16.17700  -30.92100
      C    C264   -42.49900   15.71200  -30.48400
      C    C265   -42.36700   14.73800  -29.31200
      O    O266   -41.65600   13.74300  -29.40400
      C    C267   -43.30700   15.06100  -31.63300
      C    C268   -42.42400   14.17200  -32.47700
      C    C269   -44.49800   14.26200  -31.08700
      N    N270   -43.06200   15.03100  -28.22600
      C    C271   -42.96200   14.25500  -27.00300
      C    C272   -44.18700   13.38300  -26.78600
      O    O273   -44.18500   12.53100  -25.88600
      C    C274   -42.76600   15.18700  -25.80800
      C    C275   -41.51600   16.02500  -25.88600
      C    C276   -41.27400   16.76500  -24.58500
      N    N277   -39.94600   17.38500  -24.57000
      C    C278   -39.56100   18.39800  -25.34500
      N    N279   -40.38300   18.92800  -26.22100
      N    N280   -38.33500   18.88600  -25.25400
      N    N281   -45.21700   13.59500  -27.60600
      C    C282   -46.45400   12.83700  -27.48300
      C    C283   -47.18000   13.17300  -26.18300
      O    O284   -47.28300   12.35400  -25.26700
      N    N285   -47.68600   14.39200  -26.10000
      C    C286   -48.42700   14.83700  -24.92400
      C    C287   -49.84600   15.24400  -25.28300
      O    O288   -50.23600   15.25000  -26.46100
      C    C289   -47.71200   15.99000  -24.22800
      C    C290   -46.19700   15.85700  -24.04000
      C    C291   -45.64100   17.09100  -23.37600
      C    C292   -45.84600   14.57400  -23.30300
      N    N293   -50.63800   15.54600  -24.25800
      C    C294   -52.01100   15.98700  -24.48100
      C    C295   -51.99600   17.46700  -24.83800
      O    O296   -52.99600   18.01500  -25.29900
      C    C297   -52.84400   15.73200  -23.25700
      N    N298   -50.84200   18.10100  -24.63500
      C    C299   -50.66900   19.50600  -24.89900
      C    C300   -50.05300   19.73600  -26.27300
      O    O301   -49.57900   20.83000  -26.56900
      C    C302   -49.76900   20.15100  -23.83500
      O    O303   -48.43000   19.68800  -23.96700
      C    C304   -50.26600   19.85700  -22.45500
      N    N305   -50.05000   18.70700  -27.10500
      C    C306   -49.40100   18.77700  -28.40300
      C    C307   -50.39400   18.55100  -29.52600
      O    O308   -51.21600   17.64300  -29.44700
      C    C309   -48.26200   17.76200  -28.50000
      C    C310   -47.12500   18.02000  -27.55100
      C    C311   -45.91700   17.14700  -27.83200
      O    O312   -46.11100   15.96300  -28.25700
      O    O313   -44.76700   17.65600  -27.57500
      N    N314   -50.31500   19.36000  -30.57600
      C    C315   -51.19300   19.18000  -31.71000
      C    C316   -50.36400   18.88900  -32.94000
      O    O317   -49.72800   19.80000  -33.47700
      C    C318   -52.12500   20.38400  -31.95600
      C    C319   -53.02000   20.12700  -33.15500
      C    C320   -52.95200   20.69800  -30.72300
      N    N321   -50.39100   17.61900  -33.41400
      C    C322   -49.56900   17.19800  -34.55700
      C    C323   -49.85600   17.98100  -35.81900
      O    O324   -51.00300   18.18100  -36.15200
      C    C325   -49.92400   15.73400  -34.71300
      C    C326   -50.40500   15.31100  -33.35100
      C    C327   -51.15000   16.49300  -32.84300
      N    N328   -48.81100   18.42900  -36.49200
      C    C329   -48.92800   19.11900  -37.76500
      C    C330   -47.80100   18.71600  -38.70100
      O    O331   -46.68100   18.58800  -38.27600
      C    C332   -48.91300   20.64700  -37.58100
      C    C333   -50.25600   21.16800  -37.06600
      C    C334   -47.79200   21.07400  -36.63500
      N    N335   -48.08700   18.48600  -39.97600
      C    C336   -47.05400   18.07300  -40.93700
      C    C337   -47.00900   19.01800  -42.10400
      O    O338   -47.37800   20.17400  -41.96800
      C    C339   -47.25700   16.62300  -41.39900
      C    C340   -48.69300   16.34000  -41.80500
      O    O341   -49.66800   16.97400  -41.23800
      O    O342   -48.80800   15.44900  -42.69300
      N    N343   -46.56600   18.53400  -43.26000
      C    C344   -46.42100   19.39300  -44.43500
      C    C345   -47.76200   19.78700  -45.01800
      O    O346   -47.86000   20.77100  -45.73100
      C    C347   -45.57000   18.72100  -45.48500
      N    N348   -48.78800   19.00400  -44.74000
      C    C349   -50.14000   19.33300  -45.14300
      C    C350   -50.54700   20.67300  -44.52700
      O    O351   -51.31800   21.41200  -45.12400
      C    C352   -51.09800   18.18300  -44.74300
      C    C353   -52.60300   18.49500  -44.84200
      C    C354   -50.84900   17.06800  -45.13100
      N    N355   -50.03200   20.97400  -43.33600
      C    C356   -50.45400   22.17000  -42.59000
      C    C357   -49.74600   23.42400  -43.04100
      O    O358   -50.19800   24.52900  -42.74800
      C    C359   -50.20700   21.96200  -41.11200
      C    C360   -51.03600   20.86800  -40.56100
      O    O361   -50.57100   19.70400  -40.48700
      N    N362   -52.30100   21.21300  -40.18800
      N    N363   -48.61100   23.24200  -43.72200
      C    C364   -47.84800   24.36600  -44.24300
      C    C365   -46.37000   24.24200  -43.97500
      O    O366   -45.56300   24.90900  -44.63500
      N    N367   -46.01500   23.35900  -43.04200
      C    C368   -44.63200   23.12300  -42.62300
      C    C369   -43.85200   22.29600  -43.62800
      O    O370   -44.35200   21.99300  -44.72400
      C    C371   -44.64500   22.43500  -41.24800
      C    C372   -45.15300   23.10900  -39.95800
      C    C373   -46.64100   23.37500  -39.87500
      C    C374   -44.81200   22.24200  -38.78500
      N    N375   -42.64000   21.90500  -43.24700
      C    C376   -41.84000   21.03800  -44.09600
      C    C377   -41.15200   19.97900  -43.30100
      O    O378   -40.02200   19.59300  -43.60700
      C    C379   -40.82900   21.83400  -44.91100
      C    C380   -40.18600   22.89600  -44.10600
      O    O381   -40.84400   23.90000  -43.86200
      N    N382   -38.98800   22.55900  -43.70600
      N    N383   -41.87000   19.47900  -42.30400
      C    C384   -41.44100   18.35200  -41.49200
      C    C385   -42.52700   18.05900  -40.45200
      O    O386   -43.13100   18.98300  -39.90400
      C    C387   -40.09000   18.65300  -40.83300
      C    C388   -39.54500   17.56100  -39.96100
      C    C389   -38.22500   17.91900  -39.34200
      O    O390   -37.67200   19.00600  -39.59900
      N    N391   -37.67400   16.97900  -38.56100
      N    N392   -42.79800   16.76700  -40.19900
      C    C393   -43.69700   16.42400  -39.10200
      C    C394   -43.24400   17.05000  -37.77800
      O    O395   -42.14100   16.74600  -37.26000
      C    C396   -43.66000   14.88700  -39.06000
      C    C397   -42.44200   14.51900  -39.82100
      C    C398   -42.32700   15.56800  -40.89300
      N    N399   -44.08400   17.95900  -37.28000
      C    C400   -43.83700   18.68600  -36.04400
      C    C401   -45.08200   18.69700  -35.16000
      O    O402   -46.09400   18.12700  -35.52000
      C    C403   -43.38800   20.12200  -36.35300
      O    O404   -42.39800   20.15900  -37.34500
      N    N405   -45.01500   19.39900  -34.03700
      C    C406   -46.15000   19.54400  -33.14800
      C    C407   -46.32500   20.98100  -32.69500
      O    O408   -45.37400   21.71000  -32.51200
      C    C409   -46.04700   18.65200  -31.89500
      C    C410   -46.32700   17.20500  -32.27300
      C    C411   -44.71200   18.84900  -31.18500
      N    N412   -47.58100   21.36300  -32.47300
      C    C413   -47.92100   22.62400  -31.83400
      C    C414   -47.82600   22.39000  -30.34200
      O    O415   -48.53000   21.56200  -29.77600
      C    C416   -49.33100   23.10100  -32.20600
      C    C417   -49.73700   24.32100  -31.40400
      C    C418   -49.41800   23.36200  -33.70800
      N    N419   -46.92900   23.13400  -29.70100
      C    C420   -46.73500   23.05000  -28.23700
      C    C421   -47.59500   24.05700  -27.49900
      O    O422   -47.29400   25.24400  -27.49900
      C    C423   -45.26400   23.25900  -27.88300
      O    O424   -45.08700   22.94100  -26.50800
      N    N425   -48.66900   23.59400  -26.87100
      C    C426   -49.60800   24.49800  -26.18800
      C    C427   -49.08000   24.93200  -24.82200
      O    O428   -49.59100   25.85600  -24.21300
      C    C429   -50.98900   23.85400  -26.07000
      S    S430   -51.84800   23.74200  -27.67700
      N    N431   -48.02800   24.26100  -24.37300
      C    C432   -47.41500   24.58500  -23.10400
      C    C433   -46.58800   25.86600  -23.16200
      O    O434   -46.39400   26.55300  -22.14600
      C    C435   -46.59000   23.41600  -22.58600
      C    C436   -47.43000   22.41600  -21.77600
      O    O437   -48.34200   22.86200  -21.04800
      O    O438   -47.16900   21.19200  -21.84500
      N    N439   -46.10500   26.19800  -24.34900
      C    C440   -45.28800   27.38100  -24.50200
      C    C441   -46.00000   28.53200  -25.17200
      O    O442   -45.39600   29.26000  -25.93900
      C    C443   -43.97400   27.06100  -25.20300
      C    C444   -43.12100   26.10200  -24.42100
      O    O445   -43.36700   24.90700  -24.45400
      N    N446   -42.12300   26.62600  -23.69400
      N    N447   -47.27900   28.69600  -24.88000
      C    C448   -48.06600   29.79200  -25.42600
      C    C449   -47.42800   31.12300  -25.10200
      O    O450   -47.14000   31.42500  -23.94500
      C    C451   -49.51000   29.78400  -24.84700
      O    O452   -50.10100   28.49900  -25.08500
      C    C453   -50.36800   30.86100  -25.46100
      N    N454   -47.24100   31.94100  -26.12700
      C    C455   -46.59900   33.24100  -25.93700
      C    C456   -47.34400   34.35900  -26.63400
      O    O457   -47.86500   34.15300  -27.71500
      C    C458   -45.15100   33.17700  -26.42600
      C    C459   -44.19600   32.33600  -25.62600
      C    C460   -43.66400   33.05500  -24.36700
      O    O461   -44.00700   34.23700  -24.09600
      N    N462   -42.91200   32.31300  -23.54400
      N    N463   -47.38200   35.53500  -26.02100
      C    C464   -47.95400   36.71400  -26.68400
      C    C465   -46.83200   37.61100  -27.17700
      O    O466   -45.97900   38.01200  -26.41000
      C    C467   -48.87700   37.51000  -25.77700
      O    O468   -49.93100   36.67500  -25.36000
      C    C469   -49.54100   38.57400  -26.52600
      N    N470   -46.83600   37.90900  -28.46800
      C    C471   -45.76300   38.65300  -29.11400
      C    C472   -46.30000   39.86500  -29.86400
      O    O473   -47.46100   39.86100  -30.27400
      C    C474   -44.97700   37.75800  -30.08100
      C    C475   -45.86200   37.26800  -31.19300
      C    C476   -44.37800   36.55200  -29.36000
      C    C477   -45.20000   36.35500  -32.18100
      N    N478   -45.46100   40.91500  -30.04800
      C    C479   -45.90300   42.11600  -30.80000
      C    C480   -46.09700   41.77600  -32.25800
      O    O481   -45.47800   40.83200  -32.74100
      C    C482   -44.69800   43.07700  -30.71000
      C    C483   -43.56900   42.21600  -30.26600
      C    C484   -44.10000   41.06400  -29.49900
      N    N485   -46.94900   42.52400  -32.95300
      C    C486   -47.24600   42.26800  -34.37000
      C    C487   -46.01500   42.44400  -35.26800
      O    O488   -45.85500   41.76400  -36.27100
      C    C489   -48.42200   43.11500  -34.86700
      C    C490   -48.82900   42.69900  -36.25500
      C    C491   -49.61600   42.92200  -33.96500
      N    N492   -45.13600   43.36400  -34.89800
      C    C493   -43.92800   43.62400  -35.70600
      C    C494   -42.91500   42.46200  -35.62400
      O    O495   -41.86600   42.49100  -36.28900
      C    C496   -43.29600   44.95400  -35.30700
      S    S497   -43.08000   45.21300  -33.51600
      N    N498   -43.24100   41.45900  -34.81200
      C    C499   -42.44700   40.23400  -34.76100
      C    C500   -43.18100   39.08000  -35.41700
      O    O501   -42.65400   37.98700  -35.48600
      C    C502   -42.03500   39.86700  -33.34300
      C    C503   -40.79400   40.59100  -32.89400
      O    O504   -40.26600   41.42500  -33.67900
      O    O505   -40.35100   40.31300  -31.75000
      N    N506   -44.38800   39.35600  -35.90100
      C    C507   -45.11800   38.39000  -36.69900
      C    C508   -44.74600   38.62400  -38.15900
      O    O509   -44.62600   39.76600  -38.61000
      C    C510   -46.60800   38.54700  -36.49200
      C    C511   -47.46300   37.38400  -36.99400
      C    C512   -47.11900   36.09900  -36.25500
      C    C513   -48.96800   37.74400  -37.02100
      N    N514   -44.58100   37.54300  -38.91000
      C    C515   -44.11000   37.63500  -40.28100
      C    C516   -44.95600   36.89400  -41.29100
      O    O517   -46.20800   36.92900  -41.23100
      N    N518   -44.26000   36.21700  -42.20900
      C    C519   -44.87100   35.54800  -43.37100
      C    C520   -45.85400   34.45200  -42.93200
      O    O521   -45.53500   33.67500  -42.00300
      C    C522   -43.74200   34.91700  -44.17800
      C    C523   -44.08200   34.47100  -45.58500
      C    C524   -42.97300   33.53400  -46.07400
      N    N525   -41.74500   33.63200  -45.26600
      C    C526   -40.76700   32.72900  -45.29700
      N    N527   -40.85000   31.68800  -46.11900
      N    N528   -39.68100   32.84200  -44.52000
      N    N529   -47.01200   34.36900  -43.59100
      C    C530   -47.97500   33.30200  -43.27300
      C    C531   -47.65900   32.03900  -44.05800
      O    O532   -47.77100   32.02900  -45.27500
      C    C533   -49.41100   33.72400  -43.54600
      C    C534   -50.35800   32.51400  -43.72500
      C    C535   -51.80700   32.90300  -43.96300
      O    O536   -52.07200   33.90300  -44.62300
      N    N537   -52.75000   32.12700  -43.43400
      N    N538   -47.21200   31.00400  -43.37900
      C    C539   -46.76900   29.80400  -44.05500
      C    C540   -47.61800   28.59300  -43.72200
      O    O541   -47.15000   27.70800  -43.06400
      C    C542   -45.28400   29.52300  -43.70400
      C    C543   -45.06500   29.59000  -42.20300
      C    C544   -44.36000   30.50700  -44.39800
      C    C545   -43.73200   29.09800  -41.72800
      N    N546   -48.86500   28.53700  -44.11900
      C    C547   -49.67000   27.36600  -43.74700
      C    C548   -51.01100   27.63100  -43.09900
      O    O549   -51.37800   28.74700  -42.82200
      N    N550   -51.75700   26.57100  -42.87800
      C    C551   -53.15600   26.63300  -42.46700
      C    C552   -53.36700   25.52500  -41.41800
      O    O553   -52.69200   24.46400  -41.44500
      C    C554   -54.06200   26.43200  -43.70000
      C    C555   -55.54200   26.36600  -43.43200
      C    C556   -56.19700   27.37000  -42.66800
      C    C557   -56.32600   25.32900  -43.98100
      C    C558   -57.57000   27.30900  -42.42700
      C    C559   -57.68900   25.25900  -43.74800
      C    C560   -58.29500   26.25800  -42.97600
      O    O561   -59.62600   26.21900  -42.71900
      N    N562   -54.25900   25.77800  -40.47100
      C    C563   -54.65100   24.73900  -39.55900
      C    C564   -56.04700   24.28000  -39.92700
      O    O565   -57.00300   25.05500  -39.81200
      C    C566   -54.59900   25.21100  -38.11700
      C    C567   -54.85500   24.06500  -37.09800
      C    C568   -53.61200   23.19900  -36.89200
      C    C569   -55.48200   24.45200  -35.77100
      N    N570   -56.16700   23.02200  -40.33500
      C    C571   -57.43800   22.47400  -40.83600
      C    C572   -58.54200   22.55900  -39.81100
      O    O573   -58.29700   22.34700  -38.63500
      C    C574   -57.25300   21.03100  -41.28800
      C    C575   -55.96700   20.74800  -42.09000
      C    C576   -55.95900   19.27200  -42.50200
      C    C577   -55.64700   21.72800  -43.26000
      N    N578   -59.74800   22.89200  -40.25100
      C    C579   -60.87000   23.07400  -39.31500
      C    C580   -61.17000   21.80600  -38.53300
      O    O581   -61.58100   21.85800  -37.36600
      C    C582   -62.10500   23.55400  -40.03100
      N    N583   -60.93300   20.66500  -39.17500
      C    C584   -61.08700   19.37200  -38.51700
      C    C585   -60.21300   19.25300  -37.26400
      O    O586   -60.50800   18.48100  -36.36100
      C    C587   -60.75700   18.25400  -39.49900
      O    O588   -59.49200   18.45600  -40.09400
      N    N589   -59.14200   20.03200  -37.22500
      C    C590   -58.19900   20.03200  -36.12100
      C    C591   -58.58300   20.96500  -34.97100
      O    O592   -57.96700   20.91500  -33.88900
      C    C593   -56.80400   20.38400  -36.62100
      C    C594   -56.14200   19.31600  -37.43600
      C    C595   -54.85500   19.80600  -38.10600
      O    O596   -54.86000   20.79600  -38.85500
      N    N597   -53.74600   19.11400  -37.85200
      N    N598   -59.59500   21.79400  -35.18100
      C    C599   -59.95300   22.78400  -34.18200
      C    C600   -60.46700   22.21300  -32.84100
      O    O601   -60.30400   22.84100  -31.78700
      C    C602   -60.96600   23.76300  -34.74500
      C    C603   -60.35700   24.91400  -35.54700
      C    C604   -59.63400   25.91200  -34.70300
      O    O605   -60.27800   26.49400  -33.80400
      O    O606   -58.42700   26.08400  -34.94400
      N    N607   -61.14100   21.04900  -32.87100
      C    C608   -61.42200   20.42500  -31.57600
      C    C609   -60.17800   19.96900  -30.85200
      O    O610   -60.03600   20.22900  -29.65700
      C    C611   -62.28900   19.22500  -31.95200
      C    C612   -63.01200   19.70200  -33.14200
      C    C613   -61.99100   20.46800  -33.92700
      N    N614   -59.29100   19.30100  -31.57500
      C    C615   -58.03500   18.79700  -31.00800
      C    C616   -57.30300   19.90400  -30.27500
      O    O617   -56.93300   19.75600  -29.10200
      C    C618   -57.15000   18.20600  -32.10000
      N    N619   -57.12600   21.02100  -30.98200
      C    C620   -56.52700   22.21400  -30.41900
      C    C621   -57.23100   22.60400  -29.13600
      O    O622   -56.58700   22.75700  -28.09600
      C    C623   -56.60900   23.36800  -31.41300
      C    C624   -56.18200   24.73400  -30.90800
      C    C625   -54.66500   24.79100  -30.86400
      C    C626   -56.74000   25.83500  -31.79000
      N    N627   -58.55600   22.72500  -29.20900
      C    C628   -59.38000   23.12900  -28.07100
      C    C629   -59.16900   22.23100  -26.89800
      O    O630   -59.31300   22.66000  -25.75700
      C    C631   -60.84500   23.18100  -28.45900
      N    N632   -58.80400   20.98700  -27.18700
      C    C633   -58.56800   20.01800  -26.13400
      C    C634   -57.16900   20.17900  -25.55900
      O    O635   -57.00000   20.16200  -24.32300
      C    C636   -58.76900   18.62200  -26.67700
      C    C637   -58.90100   17.50400  -25.66300
      C    C638   -59.32500   16.21400  -26.36700
      O    O639   -59.47200   16.20700  -27.63300
      O    O640   -59.50700   15.19300  -25.66500
      N    N641   -56.18400   20.36100  -26.45100
      C    C642   -54.80200   20.46500  -26.03200
      C    C643   -54.62400   21.57300  -25.00200
      O    O644   -54.13600   21.34100  -23.89400
      C    C645   -53.91900   20.69300  -27.20700
      N    N646   -55.07100   22.76600  -25.37500
      C    C647   -55.11500   23.91200  -24.48700
      C    C648   -55.83700   23.57900  -23.20800
      O    O649   -55.31400   23.86400  -22.10000
      C    C650   -55.73700   25.12700  -25.18300
      C    C651   -54.78900   25.57400  -26.30200
      C    C652   -55.93700   26.26300  -24.19600
      C    C653   -55.10900   26.88500  -26.94500
      N    N654   -57.00300   22.93900  -23.38400
      C    C655   -57.83200   22.51500  -22.23900
      C    C656   -57.01800   21.66600  -21.29000
      O    O657   -57.08200   21.85200  -20.05600
      N    N658   -56.24800   20.75100  -21.87900
      C    C659   -55.42200   19.86600  -21.07400
      C    C660   -54.17200   20.57600  -20.56700
      O    O661   -53.63600   20.23900  -19.51000
      C    C662   -55.01000   18.62500  -21.84800
      C    C663   -56.11300   17.63700  -22.01200
      O    O664   -56.68300   17.49400  -23.10600
      N    N665   -56.34600   16.86000  -20.96300
      N    N666   -53.71800   21.58700  -21.29500
      C    C667   -52.53400   22.24100  -20.86600
      C    C668   -52.80700   23.07600  -19.65400
      O    O669   -51.92000   23.28400  -18.84300
      C    C670   -51.98300   23.07800  -21.97400
      N    N671   -54.04100   23.55500  -19.53100
      C    C672   -54.39400   24.43500  -18.41000
      C    C673   -55.38000   23.88700  -17.41500
      O    O674   -55.70500   24.55700  -16.42400
      C    C675   -54.93800   25.77100  -18.91800
      C    C676   -54.06300   26.43600  -19.93200
      C    C677   -52.72900   26.12100  -19.99400
      C    C678   -54.56600   27.41200  -20.80800
      C    C679   -51.89200   26.76100  -20.87800
      C    C680   -53.74600   28.01400  -21.74800
      C    C681   -52.40800   27.70900  -21.76300
      N    N682   -55.86100   22.67800  -17.67700
      C    C683   -56.83700   22.05300  -16.81400
      C    C684   -58.26200   22.64200  -16.96500
      O    O685   -58.84700   23.17000  -16.02000
      C    C686   -56.37900   22.07300  -15.36400
      C    C687   -57.35300   21.41200  -14.45500
      O    O688   -57.50400   20.18900  -14.59500
      O    O689   -57.96100   22.11000  -13.60300
      N    N690   -58.78900   22.50500  -18.18000
      C    C691   -60.23700   22.44100  -18.37300
      C    C692   -60.71300   22.02300  -19.78300
      O    O693   -61.86300   21.52900  -19.92500
      C    C694   -60.84000   23.73500  -17.85800
      C    C695   -62.04800   23.67200  -16.93500
      C    C696   -63.28600   22.98900  -17.51300
      C    C697   -61.64600   23.06500  -15.61000
