# CIF file generated by openbabel 2.3.2, see http://openbabel.sf.net
data_I
_chemical_name_common '../proteins/pdb/5V7Q.pdb'
_cell_length_a 1
_cell_length_b 1
_cell_length_c 1
_cell_angle_alpha 90
_cell_angle_beta 90
_cell_angle_gamma 90
_space_group_name_H-M_alt 'P 1'
_space_group_name_Hall 'P 1'
loop_
    _symmetry_equiv_pos_as_xyz
    'x,y,z'
loop_
    _atom_site_type_symbol
    _atom_site_label
    _atom_site_Cartn_x
    _atom_site_Cartn_y
    _atom_site_Cartn_z
      N    N1   158.38700  167.49300  125.62500
      C    C2   158.92300  166.98100  124.37400
      C    C3   160.42400  166.76800  124.49700
      O    O4   161.16900  167.72900  124.68800
      C    C5   158.61300  167.93800  123.23300
      N    N6   160.85000  165.51400  124.40200
      C    C7   162.26400  165.15500  124.49400
      C    C8   162.63900  164.39900  123.23100
      O    O9   161.76700  163.81600  122.56300
      C    C10   162.56200  164.32200  125.76100
      C    C11   162.18400  165.10600  127.01800
      C    C12   161.86700  162.98000  125.72300
      N    N13   163.93700  164.38000  122.86400
      C    C14   164.36900  163.64500  121.66700
      C    C15   163.92800  162.19800  121.60500
      O    O16   164.28600  161.37800  122.45300
      C    C17   165.89100  163.74600  121.73100
      C    C18   166.12200  164.99900  122.43600
      C    C19   165.07100  165.09500  123.47000
      N    N20   163.14100  161.89100  120.58000
      C    C21   162.64600  160.53700  120.39300
      C    C22   163.74900  159.60000  119.92500
      O    O23   163.86400  158.48300  120.43300
      C    C24   161.48800  160.56700  119.40200
      C    C25   160.87900  159.23900  119.02700
      C    C26   160.23900  158.53600  120.16900
      C    C27   159.52200  157.31300  119.65400
      N    N28   158.90800  156.52100  120.73100
      N    N29   164.54500  160.02200  118.94300
      C    C30   165.65300  159.22900  118.43000
      C    C31   166.86000  160.10900  118.16300
      O    O32   166.72200  161.30400  117.89700
      C    C33   165.27200  158.52500  117.14100
      C    C34   164.19400  157.51400  117.32400
      C    C35   163.84800  156.85600  116.03700
      N    N36   162.83200  155.82400  116.20900
      C    C37   161.51900  156.03900  116.19700
      N    N38   161.01800  157.25700  116.03100
      N    N39   160.69200  155.01700  116.35700
      N    N40   168.04800  159.51400  118.22500
      C    C41   169.23400  160.28000  117.88700
      C    C42   169.22100  160.65200  116.41600
      O    O43   168.64600  159.95700  115.57600
      C    C44   170.52500  159.53300  118.21200
      C    C45   170.84800  158.32000  117.37900
      C    C46   172.12600  157.68400  117.87800
      N    N47   173.28200  158.52500  117.60500
      C    C48   174.51300  158.30300  118.05100
      N    N49   174.79500  157.26100  118.81200
      N    N50   175.48200  159.13700  117.72100
      N    N51   169.87600  161.76300  116.11700
      C    C52   169.94900  162.25700  114.75900
      C    C53   171.11500  161.60400  114.04000
      O    O54   172.19500  161.42500  114.60900
      C    C55   170.09300  163.77400  114.76400
      C    C56   169.96400  164.42200  113.40400
      C    C57   170.08000  165.92800  113.44600
      C    C58   168.91100  166.58600  114.14700
      N    N59   167.64900  166.41700  113.41400
      N    N60   170.87800  161.22300  112.79200
      C    C61   171.92500  160.64100  111.97000
      C    C62   173.10000  161.59800  111.81900
      O    O63   172.93200  162.82000  111.75000
      C    C64   171.36300  160.27500  110.60100
      O    O65   172.38300  159.79600  109.74300
      N    N66   174.29900  161.01700  111.77000
      C    C67   175.52600  161.78000  111.58200
      C    C68   175.44900  162.68300  110.35600
      O    O69   175.89500  163.84200  110.39700
      C    C70   176.68300  160.78200  111.45600
      C    C71   178.07200  161.37200  111.35400
      C    C72   179.16000  160.29300  111.50600
      N    N73   179.17400  159.33300  110.39900
      C    C74   179.77900  158.14200  110.42300
      N    N75   180.43500  157.73100  111.50000
      N    N76   179.72500  157.34000  109.36200
      N    N77   174.78700  162.20500  109.30200
      C    C78   174.66300  162.93200  108.04800
      C    C79   173.80400  164.18000  108.16200
      O    O80   173.88400  165.04500  107.28500
      C    C81   174.08300  162.00700  106.98600
      O    O82   172.75300  161.64200  107.31000
      N    N83   172.97200  164.28200  109.19400
      C    C84   172.17300  165.47700  109.43100
      C    C85   172.76100  166.35200  110.52100
      O    O86   172.72400  167.59300  110.42300
      C    C87   170.75200  165.09000  109.83700
      C    C88   169.96900  164.47300  108.70600
      O    O89   170.15400  164.82100  107.54100
      N    N90   169.08400  163.55000  109.04200
      N    N91   173.35200  165.71500  111.52700
      C    C92   173.98900  166.45500  112.59800
      C    C93   175.08600  167.33800  112.03600
      O    O94   175.18800  168.52200  112.37800
      C    C95   174.53500  165.48500  113.63500
      O    O96   173.45200  164.73900  114.19000
      C    C97   175.21500  166.21400  114.76300
      N    N98   175.91800  166.77800  111.16200
      C    C99   177.00200  167.57700  110.62300
      C    C100   176.49500  168.69600  109.72400
      O    O101   177.18500  169.71000  109.57000
      C    C102   177.99100  166.67000  109.91600
      C    C103   178.77400  165.85700  110.91600
      C    C104   179.71400  164.90900  110.27300
      N    N105   180.58900  164.29500  111.26200
      C    C106   181.32300  163.20400  111.05400
      N    N107   181.28800  162.55900  109.89200
      N    N108   182.09000  162.73900  112.03100
      N    N109   175.30300  168.55300  109.14900
      C    C110   174.71200  169.67400  108.43100
      C    C111   174.40900  170.81200  109.38900
      O    O112   174.72100  171.98100  109.10600
      C    C113   173.43400  169.23800  107.72400
      O    O114   172.83800  170.31500  107.02800
      N    N115   173.85900  170.47900  110.55900
      C    C116   173.57000  171.52700  111.53000
      C    C117   174.85200  172.16600  112.03200
      O    O118   174.89400  173.37900  112.26600
      C    C119   172.79800  170.95400  112.70700
      C    C120   171.45300  170.44500  112.33400
      C    C121   170.76500  169.85300  113.52000
      N    N122   170.38300  170.85700  114.49900
      C    C123   169.97400  170.58500  115.73200
      N    N124   169.90200  169.33200  116.16900
      N    N125   169.62200  171.57800  116.53400
      N    N126   175.90600  171.36700  112.18000
      C    C127   177.19800  171.89900  112.58400
      C    C128   177.76200  172.81800  111.51800
      O    O129   178.50700  173.75500  111.82900
      C    C130   178.18100  170.76400  112.80200
      C    C131   177.86200  169.80100  113.90800
      C    C132   178.05100  170.39700  115.23600
      N    N133   177.65100  169.45500  116.27200
      C    C134   178.43900  168.51100  116.77900
      N    N135   179.68800  168.35000  116.35600
      N    N136   177.97400  167.71100  117.72100
      N    N137   177.43300  172.55100  110.25800
      C    C138   177.97500  173.34100  109.16700
      C    C139   177.25400  174.66000  108.97800
      O    O140   177.87300  175.62500  108.52200
      C    C141   177.92200  172.53800  107.88200
      O    O142   176.58400  172.30300  107.47900
      N    N143   175.96500  174.73600  109.29600
      C    C144   175.25700  176.01700  109.19600
      C    C145   175.39500  176.81200  110.49500
      O    O146   174.42200  177.17500  111.15200
      C    C147   173.79600  175.79400  108.83300
      C    C148   173.60300  175.13700  107.48100
      C    C149   174.06800  176.01500  106.34300
      O    O150   173.69300  177.18300  106.25100
      N    N151   174.93100  175.47400  105.50000
      N    N152   176.65000  177.08100  110.84800
      C    C153   176.98100  177.82100  112.05600
      C    C154   178.30600  178.54700  111.84100
      O    O155   179.23100  178.40100  112.64600
      C    C156   177.06000  176.87800  113.25100
      C    C157   177.20100  177.55700  114.56100
      C    C158   176.41800  178.54800  115.05800
      C    C159   178.21100  177.31500  115.53300
      N    N160   176.87000  178.93100  116.29400
      C    C161   177.97500  178.18700  116.60600
      C    C162   179.29300  176.44600  115.60100
      C    C163   178.78000  178.20900  117.72900
      C    C164   180.08100  176.46600  116.71000
      C    C165   179.82600  177.33800  117.76200
      N    N166   178.42500  179.31600  110.76100
      C    C167   179.70200  179.88600  110.35600
      C    C168   179.75000  181.38700  110.60600
      O    O169   178.72600  182.05200  110.77900
      C    C170   179.96000  179.62800  108.86800
      C    C171   179.97300  178.17100  108.44500
      C    C172   181.11100  177.38800  109.07500
      C    C173   181.16200  175.95900  108.53600
      N    N174   182.21300  175.11900  109.17600
      N    N175   180.97700  181.90200  110.63400
      C    C176   181.26600  183.31000  110.86100
      C    C177   181.33700  184.09800  109.55600
      O    O178   181.54900  183.54700  108.47400
      C    C179   182.57700  183.46400  111.62100
      N    N180   181.16400  185.41300  109.68000
      C    C181   181.24100  186.33000  108.55300
      C    C182   182.69500  186.68100  108.23200
      O    O183   183.62300  186.37000  108.98400
      C    C184   180.44600  187.60000  108.84000
      N    N185   182.88000  187.33400  107.08400
      C    C186   184.19100  187.73400  106.56700
      C    C187   184.23700  189.24500  106.32900
      O    O188   183.62600  189.73300  105.37300
      C    C189   184.49500  186.99100  105.27300
      C    C190   184.64700  185.49100  105.41400
      C    C191   184.98200  184.88200  104.05800
      C    C192   185.14100  183.37100  104.11300
      N    N193   185.45900  182.81000  102.76700
      N    N194   184.94200  189.99200  107.18400
      C    C195   185.14600  191.42400  106.97400
      C    C196   186.59400  191.79400  107.26600
      O    O197   187.14100  191.40700  108.30400
      C    C198   184.20000  192.25000  107.84400
      O    O199   182.84800  191.88200  107.55700
      C    C200   184.35700  193.74200  107.55500
      N    N201   187.20400  192.54600  106.34800
      C    C202   188.59200  192.98300  106.46600
      C    C203   188.82100  194.14600  105.51200
      O    O204   188.00600  194.40800  104.62500
      C    C205   189.56100  191.83200  106.19100
      C    C206   189.43900  191.23500  104.79500
      C    C207   190.34100  190.03600  104.59700
      O    O208   191.11300  189.71400  105.52400
      O    O209   190.27200  189.41000  103.51800
      N    N210   189.94300  194.84300  105.70400
      C    C211   190.26100  195.99100  104.86000
      C    C212   191.76200  196.21000  104.84200
      O    O213   192.37000  196.35000  105.90500
      C    C214   189.60600  197.26100  105.36900
      C    C215   189.64500  198.47500  104.46700
      C    C216   188.72300  198.22400  103.28900
      C    C217   189.36400  199.76100  105.21600
      N    N218   192.33100  196.33800  103.64500
      C    C219   193.76300  196.52900  103.45900
      C    C220   194.00100  197.94800  102.95600
      O    O221   193.08000  198.65000  102.53700
      C    C222   194.37800  195.50100  102.48000
      C    C223   194.20600  194.10600  103.00100
      C    C224   193.76900  195.61700  101.06900
      N    N225   195.26300  198.36500  103.01200
      C    C226   195.65900  199.68400  102.57000
      C    C227   195.59100  200.76000  103.62900
      O    O228   195.85500  201.92800  103.31800
      N    N229   195.25400  200.40900  104.86600
      C    C230   195.08300  201.39100  105.92900
      C    C231   196.42700  201.79000  106.52000
      O    O232   196.85100  201.26100  107.55300
      C    C233   194.13700  200.85300  107.01300
      C    C234   193.91500  201.89500  108.10400
      C    C235   192.81300  200.41900  106.38300
      N    N236   197.09300  202.73300  105.86900
      C    C237   198.37300  203.23300  106.34100
      C    C238   198.20400  204.00300  107.64200
      O    O239   197.31100  204.84500  107.76800
      C    C240   199.01500  204.13100  105.28400
      O    O241   199.18600  203.39400  104.06900
      C    C242   200.38000  204.64200  105.74300
      N    N243   199.05600  203.69500  108.61400
      C    C244   199.14200  204.41900  109.86900
      C    C245   200.59000  204.85300  110.05200
      O    O246   201.43900  204.61100  109.19400
      C    C247   198.65300  203.58200  111.07000
      C    C248   197.19500  203.23500  110.89300
      C    C249   199.49500  202.31100  111.26000
      N    N250   200.85500  205.53000  111.16600
      C    C251   202.21400  205.92800  111.49000
      C    C252   203.10600  204.69500  111.53300
      O    O253   202.75600  203.67900  112.13800
      C    C254   202.24800  206.66200  112.83000
      N    N255   204.25300  204.78500  110.87700
      C    C256   205.14900  203.65300  110.78500
      C    C257   204.64400  202.57100  109.85300
      O    O258   204.33800  202.83900  108.68800
      N    N259   204.54100  201.34500  110.35800
      C    C260   204.14200  200.22200  109.52100
      C    C261   202.65700  200.27700  109.18000
      O    O262   201.81800  200.61000  110.02100
      C    C263   204.46400  198.89800  110.20100
      C    C264   204.27900  197.71600  109.30400
      N    N265   203.04700  197.15000  109.05600
      C    C266   205.17300  197.00200  108.58100
      C    C267   203.19200  196.13400  108.22400
      N    N268   204.47200  196.02300  107.92100
      N    N269   202.33900  199.93800  107.93300
      C    C270   200.96200  199.90500  107.44600
      C    C271   200.31500  198.57800  107.82000
      O    O272   200.58500  197.54300  107.20900
      C    C273   200.92300  200.12100  105.93900
      N    N274   199.45500  198.61300  108.83500
      C    C275   198.78900  197.42700  109.35100
      C    C276   197.52100  197.16500  108.54300
      O    O277   197.40400  197.62700  107.40500
      C    C278   198.48400  197.61700  110.83700
      C    C279   199.70000  197.83600  111.68000
      N    N280   200.56700  196.82000  112.02100
      C    C281   200.19800  198.96100  112.24300
      C    C282   201.55800  197.31500  112.74000
      N    N283   201.34700  198.60800  112.90700
      N    N284   196.57400  196.42300  109.11200
      C    C285   195.33900  196.04800  108.44300
      C    C286   194.21900  196.03500  109.47400
      O    O287   194.37900  195.47100  110.55900
      C    C288   195.50200  194.67400  107.80700
      C    C289   194.32900  194.15800  107.05700
      C    C290   194.66500  192.84800  106.39400
      C    C291   193.44000  192.24700  105.72500
      N    N292   193.75700  191.00300  104.96800
      N    N293   193.09100  196.64900  109.12700
      C    C294   191.96700  196.82200  110.04800
      C    C295   190.63000  196.61900  109.34200
      O    O296   190.60500  196.33900  108.13900
      C    C297   192.01400  198.20200  110.72600
      C    C298   193.24400  198.34700  111.58100
      C    C299   192.00200  199.29600  109.70700
      N    N300   189.51200  196.66800  110.06500
      C    C301   188.18900  196.71700  109.43700
      C    C302   187.69700  198.11700  109.09700
      O    O303   188.11100  199.12300  109.68300
      C    C304   187.29000  196.08800  110.50800
      C    C305   187.97500  196.36400  111.74800
      C    C306   189.40400  196.20100  111.45400
      N    N307   186.78400  198.16500  108.11800
      C    C308   186.20700  199.43600  107.69500
      C    C309   185.48100  200.13300  108.82600
      O    O310   185.43600  201.36700  108.87200
      C    C311   185.21900  199.23400  106.55600
      C    C312   185.84300  198.91300  105.25000
      C    C313   184.82900  198.71400  104.14700
      N    N314   184.00900  199.90100  103.90800
      C    C315   184.40000  200.96500  103.21800
      N    N316   185.61500  201.04100  102.70900
      N    N317   183.57300  201.98200  103.06200
      N    N318   184.86600  199.35400  109.70600
      C    C319   184.17100  199.90500  110.85600
      C    C320   185.08400  200.80700  111.67100
      O    O321   184.67800  201.89100  112.10200
      C    C322   183.65700  198.74300  111.70200
      C    C323   182.85300  199.09200  112.91700
      C    C324   182.39300  197.82100  113.59600
      N    N325   181.59300  198.09200  114.78600
      C    C326   182.08300  198.28400  116.01000
      N    N327   183.38800  198.22700  116.25400
      N    N328   181.25300  198.51900  117.01400
      N    N329   186.33100  200.38500  111.86000
      C    C330   187.28500  201.06700  112.71700
      C    C331   188.37500  201.80200  111.94200
      O    O332   189.35600  202.25600  112.55300
      C    C333   187.91500  200.04500  113.65500
      C    C334   186.94700  199.28600  114.56000
      C    C335   187.69300  198.22200  115.31900
      C    C336   186.26200  200.19000  115.56200
      N    N337   188.22300  201.97200  110.62100
      C    C338   189.32800  202.57700  109.88700
      C    C339   189.47600  204.03400  110.26800
      O    O340   190.58600  204.56500  110.25700
      C    C341   189.15400  202.48800  108.36600
      C    C342   188.22000  203.42600  107.57800
      C    C343   188.92000  204.71800  107.14700
      C    C344   187.67500  202.76600  106.32500
      N    N345   188.37600  204.68900  110.62700
      C    C346   188.45100  206.09500  110.99000
      C    C347   189.24300  206.25900  112.27600
      O    O348   190.07600  207.16700  112.39800
      C    C349   187.03700  206.65400  111.14300
      C    C350   186.93500  208.14000  111.38200
      C    C351   187.37600  208.90500  110.15200
      C    C352   187.14400  210.38800  110.29700
      N    N353   187.54900  211.11100  109.06200
      N    N354   189.00600  205.36900  113.23800
      C    C355   189.77500  205.38700  114.47000
      C    C356   191.24400  205.13900  114.18600
      O    O357   192.11600  205.76900  114.79500
      C    C358   189.24000  204.33800  115.43200
      N    N359   191.53800  204.21300  113.27200
      C    C360   192.92800  203.97800  112.90000
      C    C361   193.54400  205.23500  112.30400
      O    O362   194.70100  205.56500  112.58600
      C    C363   193.02700  202.82000  111.91700
      N    N364   192.77800  205.95300  111.48100
      C    C365   193.26600  207.19200  110.89200
      C    C366   193.51800  208.25000  111.95300
      O    O367   194.40800  209.09100  111.78500
      C    C368   192.25900  207.70800  109.87000
      C    C369   192.11400  206.85300  108.63300
      C    C370   193.32000  206.90200  107.73100
      N    N371   193.07900  206.13600  106.51300
      C    C372   193.93200  206.02300  105.50000
      N    N373   195.10700  206.63500  105.51800
      N    N374   193.59900  205.29200  104.44800
      N    N375   192.75600  208.22800  113.04500
      C    C376   192.98900  209.15500  114.14300
      C    C377   193.99800  208.63200  115.15700
      O    O378   194.32800  209.35400  116.10300
      C    C379   191.68000  209.48100  114.86600
      C    C380   190.58000  210.21100  114.08200
      C    C381   189.33600  210.36500  114.94500
      C    C382   191.02500  211.56800  113.55700
      N    N383   194.48700  207.40300  114.99400
      C    C384   195.43400  206.82600  115.92600
      C    C385   194.82500  206.19900  117.15900
      O    O386   195.56800  205.84700  118.08200
      N    N387   193.50300  206.04200  117.20700
      C    C388   192.82100  205.49100  118.37700
      C    C389   192.71000  203.96900  118.28700
      O    O390   191.62900  203.38600  118.35900
      C    C391   191.44700  206.12800  118.53000
      C    C392   191.37800  207.64200  118.70700
      C    C393   189.92800  208.08900  118.75200
      C    C394   192.11300  208.08900  119.95300
      N    N395   193.86500  203.32900  118.12300
      C    C396   193.96700  201.87700  118.05800
      C    C397   195.15500  201.44600  118.90500
      O    O398   195.98900  202.25800  119.30700
      C    C399   194.09300  201.34700  116.61300
      C    C400   195.31400  201.95800  115.90000
      C    C401   192.76800  201.57400  115.88100
      C    C402   195.64200  201.32400  114.55600
      N    N403   195.22400  200.14400  119.16800
      C    C404   196.26900  199.57800  120.01300
      C    C405   196.64300  198.21800  119.44900
      O    O406   195.87200  197.26300  119.58400
      C    C407   195.78800  199.45600  121.45900
      C    C408   196.88900  199.02100  122.42100
      O    O409   198.00400  198.68000  121.97200
      O    O410   196.63200  199.02200  123.64300
      N    N411   197.80700  198.13900  118.80700
      C    C412   198.33200  196.87200  118.31300
      C    C413   197.37900  196.21700  117.31500
      O    O414   196.82100  196.89000  116.44400
      C    C415   198.61400  195.94300  119.50600
      C    C416   199.11900  194.59600  119.12700
      C    C417   200.40700  194.42600  118.66300
      C    C418   198.30400  193.48900  119.26000
      C    C419   200.87200  193.17500  118.32500
      C    C420   198.75600  192.23900  118.92900
      C    C421   200.04500  192.07700  118.45900
