# CIF file generated by openbabel 2.3.2, see http://openbabel.sf.net
data_I
_chemical_name_common '../proteins/pdb/6C4Q.pdb'
_cell_length_a 51.889
_cell_length_b 51.889
_cell_length_c 74.427
_cell_angle_alpha 90
_cell_angle_beta 90
_cell_angle_gamma 90
_space_group_name_H-M_alt 'P 43 21 2'
_space_group_name_Hall 'P 4nw 2abw'
loop_
    _symmetry_equiv_pos_as_xyz
    'x,y,z'
    '-x,-y,1/2+z'
    '1/2-y,1/2+x,3/4+z'
    '1/2+y,1/2-x,1/4+z'
    '1/2-x,1/2+y,3/4-z'
    '1/2+x,1/2-y,1/4-z'
    'y,x,-z'
    '-y,-x,1/2-z'
loop_
    _atom_site_type_symbol
    _atom_site_label
    _atom_site_Cartn_x
    _atom_site_Cartn_y
    _atom_site_Cartn_z
      N    N1    19.21100   22.97600   12.28400
      C    C2    19.61900   22.09500   11.13900
      C    C3    18.48200   21.93600   10.11700
      O    O4    17.31200   22.07900   10.47900
      C    C5    20.05600   20.73000   11.65200
      N    N6    18.82100   21.64300    8.83800
      C    C7    17.82700   21.45600    7.77100
      C    C8    16.61400   20.59900    8.13800
      O    O9    15.47600   21.01600    7.90700
      C    C10    18.63400   20.76900    6.66900
      C    C11    20.00700   21.32600    6.82800
      C    C12    20.19000   21.67100    8.28700
      N    N13    16.84400   19.42600    8.72400
      C    C14    15.73200   18.53500    9.04800
      C    C15    14.84400   19.08700   10.17500
      O    O16    13.69400   18.67600   10.28400
      C    C17    16.24100   17.14000    9.35200
      N    N18    15.36300   20.01200   10.99200
      C    C19    14.58700   20.67700   12.05900
      C    C20    13.68300   21.77300   11.44500
      O    O21    12.48900   21.89500   11.78000
      C    C22    15.51900   21.27400   13.11400
      C    C23    16.45700   20.25300   13.75700
      C    C24    17.44900   20.86900   14.72400
      O    O25    17.18800   21.97700   15.24800
      O    O26    18.49400   20.23100   14.97400
      N    N27    14.24700   22.54800   10.53000
      C    C28    13.49000   23.56900    9.81400
      C    C29    12.44600   22.90100    8.92200
      O    O30    11.44100   23.52100    8.53900
      C    C31    14.41900   24.43600    8.95800
      C    C32    15.48300   25.18900    9.75100
      C    C33    16.27100   26.16800    8.88400
      N    N34    16.99500   25.49400    7.80400
      C    C35    17.75300   26.10800    6.89300
      N    N36    17.90900   27.43200    6.91000
      N    N37    18.36500   25.38700    5.95400
      N    N38    12.65800   21.62500    8.64700
      C    C39    11.79500   20.88600    7.74600
      C    C40    10.43400   20.53500    8.29400
      O    O41     9.49300   20.37200    7.50200
      C    C42    12.47300   19.58400    7.35100
      N    N43    10.31900   20.40000    9.61100
      N    N44    10.33000   20.34800    9.59900
      C    C45     9.09400   19.92600   10.23000
      C    C46     9.09200   19.89100   10.17200
      C    C47     7.92500   20.86400   10.06400
      C    C48     7.93500   20.83900    9.91900
      O    O49     8.09300   22.08600   10.06200
      O    O50     8.12200   22.03600    9.69600
      C    C51     9.30400   19.68100   11.73400
      C    C52     9.23500   19.64200   11.68700
      C    C53    10.46700   18.76500   12.05400
      C    C54     9.92300   18.33500   12.08600
      C    C55    10.58400   18.42500   13.52900
      C    C56    11.43900   18.37400   12.00200
      O    O57     9.55300   18.19100   14.18500
      O    O58    11.99500   19.45200   11.73900
      O    O59    11.72300   18.35100   14.01500
      O    O60    12.08400   17.32700   12.21600
      N    N61     6.73800   20.27100    9.96000
      C    C62     5.51400   21.02600    9.88700
      C    C63     5.42900   21.85500   11.17700
      O    O64     5.60200   21.33600   12.27900
      C    C65     4.33600   20.06700    9.80700
      C    C66     2.94900   20.66000    9.58500
      C    C67     2.81700   21.29000    8.21300
      C    C68     1.91700   19.56800    9.74500
      N    N69     5.17700   23.14900   11.02900
      C    C70     5.16000   24.09800   12.15200
      C    C71     3.75000   24.42100   12.63700
      O    O72     2.76000   24.13900   11.96000
      C    C73     5.83300   25.41800   11.72900
      O    O74     5.00000   26.08600   10.78900
      C    C75     7.23000   25.17300   11.14000
      N    N76     3.66400   25.02800   13.82400
      C    C77     2.37600   25.45900   14.35400
      C    C78     1.69800   26.48800   13.41300
      O    O79     0.51500   26.33300   13.09200
      C    C80     2.47300   25.94200   15.80600
      C    C81     1.13400   26.48900   16.25000
      C    C82     2.90400   24.78400   16.68700
      N    N83     2.43700   27.51000   12.91600
      C    C84     1.77700   28.42100   11.96400
      C    C85     1.26000   27.70300   10.71100
      O    O86     0.18300   28.04300   10.20900
      C    C87     2.86900   29.45200   11.63300
      C    C88     3.73100   29.45500   12.84800
      C    C89     3.73400   28.04700   13.36400
      N    N90     2.02300   26.72900   10.20100
      N    N91     2.00800   26.72100   10.20800
      C    C92     1.54800   25.94900    9.05400
      C    C93     1.53600   25.95800    9.05300
      C    C94     0.28800   25.15200    9.39900
      C    C95     0.30700   25.10900    9.38000
      O    O96    -0.64800   25.08800    8.59700
      O    O97    -0.58800   24.96100    8.54300
      C    C98     2.62700   24.98800    8.54900
      C    C99     2.66200   25.08900    8.51500
      C    C100     3.77200   25.63700    7.76700
      C    C101     3.75400   25.90000    7.82900
      C    C102     4.77600   24.61400    7.24000
      C    C103     5.06400   25.14900    7.69300
      O    O104     5.17200   23.70200    7.94900
      O    O105     5.55800   24.59000    8.68800
      O    O106     5.15200   24.70500    6.10100
      O    O107     5.70000   25.22000    6.60400
      N    N108     0.26100   24.55800   10.59000
      C    C109    -0.88700   23.75200   11.00300
      C    C110    -2.12400   24.62900   11.17100
      O    O111    -3.23200   24.24700   10.76800
      C    C112    -0.51000   22.99000   12.26100
      C    C113    -1.54100   21.94900   12.68200
     Se   Se114    -1.63200   20.42700   11.48500
      C    C115    -3.42300   20.69300   10.83800
      N    N116    -1.94300   25.81600   11.75800
      C    C117    -3.04400   26.76700   11.87700
      C    C118    -3.57100   27.16200   10.50300
      O    O119    -4.78000   27.21800   10.26700
      C    C120    -2.59900   28.01000   12.63200
      C    C121    -2.33200   27.78600   14.11600
      C    C122    -1.55700   28.92400   14.75900
      N    N123    -2.14300   30.18800   14.39700
      C    C124    -1.51000   31.22800   13.88500
      N    N125    -0.17400   31.29200   13.86800
      N    N126    -2.23300   32.26800   13.46200
      N    N127    -2.65000   27.46500    9.58500
      C    C128    -3.02000   27.85000    8.23800
      C    C129    -3.79000   26.72400    7.54600
      O    O130    -4.79200   26.96400    6.86500
      C    C131    -1.75000   28.19100    7.46000
      C    C132    -1.93400   28.49000    5.99000
      C    C133    -0.58700   28.60800    5.26300
      O    O134     0.39800   27.92700    5.59500
      N    N135    -0.54900   29.43800    4.28300
      N    N136    -3.31800   25.49800    7.71300
      C    C137    -3.98700   24.35500    7.09500
      C    C138    -5.42400   24.24600    7.61900
      O    O139    -6.34900   24.03100    6.83700
      C    C140    -3.19000   23.09900    7.39100
      C    C141    -3.62200   21.86300    6.68800
      C    C142    -3.03700   21.30500    5.58700
      C    C143    -4.66400   20.96800    7.08100
      N    N144    -3.66100   20.13700    5.25800
      C    C145    -4.67200   19.90700    6.15200
      C    C146    -5.60900   20.96500    8.11700
      C    C147    -5.55900   18.85600    6.23800
      C    C148    -6.48700   19.91700    8.20800
      C    C149    -6.46600   18.87000    7.28000
      N    N150    -5.61800   24.40400    8.92900
      C    C151    -6.96000   24.33600    9.50300
      C    C152    -7.85700   25.47100    9.02600
      O    O153    -9.03000   25.25400    8.72200
      C    C154    -6.87900   24.31600   11.01800
      C    C155    -6.36400   23.00300   11.61200
      C    C156    -5.94100   23.17400   13.04100
      C    C157    -7.36900   21.88000   11.47400
      N    N158    -7.33000   26.69000    8.97700
      C    C159    -8.14400   27.80600    8.44500
      C    C160    -8.54400   27.54400    6.98700
      O    O161    -9.67600   27.81300    6.58400
      C    C162    -7.41000   29.14100    8.51300
      C    C163    -7.14700   29.64800    9.92400
      C    C164    -6.71800   31.12300    9.90700
      N    N165    -5.61700   31.36500    8.96900
      C    C166    -4.32000   31.21200    9.23800
      N    N167    -3.88500   30.88200   10.44600
      N    N168    -3.43200   31.39400    8.26600
      N    N169    -7.59900   27.04000    6.19100
      C    C170    -7.87300   26.71500    4.79600
      C    C171    -8.94400   25.62000    4.68800
      O    O172    -9.85600   25.70900    3.86700
      C    C173    -6.60500   26.22500    4.07700
      C    C174    -5.63000   27.32800    3.75300
      O    O175    -5.94100   28.49400    3.86700
      N    N176    -4.40700   26.94000    3.36400
      N    N177    -8.83300   24.58800    5.53200
      C    C178    -9.76100   23.46800    5.49200
      C    C179   -11.17100   23.95100    5.83600
      O    O180   -12.14200   23.70600    5.09800
      C    C181    -9.30900   22.35000    6.46300
      C    C182    -9.84800   21.03200    6.11300
      C    C183    -9.16400   20.04200    5.48600
      C    C184   -11.20700   20.55300    6.25400
      N    N185    -9.98900   18.98200    5.23400
      C    C186   -11.24800   19.26800    5.67600
      C    C187   -12.38700   21.09000    6.78200
      C    C188   -12.41500   18.50900    5.61000
      C    C189   -13.54900   20.32300    6.73300
      C    C190   -13.56300   19.05200    6.13700
      N    N191   -11.27900   24.64100    6.95900
      C    C192   -12.57300   25.13200    7.41400
      C    C193   -13.16000   26.13700    6.41200
      O    O194   -14.34100   26.05200    6.06500
      C    C195   -12.47000   25.75800    8.81600
      C    C196   -13.77800   26.41300    9.21400
      C    C197   -12.08400   24.69200    9.82600
      N    N198   -12.32200   27.04700    5.91400
      C    C199   -12.79100   28.04600    4.95000
      C    C200   -13.39800   27.38600    3.72100
      O    O201   -14.47300   27.76900    3.25500
      N    N202   -12.72300   26.37100    3.19900
      C    C203   -13.23600   25.66300    2.02700
      C    C204   -14.55500   24.95600    2.36300
      O    O205   -15.49800   24.97700    1.56200
      C    C206   -12.17800   24.67000    1.53600
      C    C207   -12.55600   23.71400    0.41400
      C    C208   -11.32900   22.88400    0.04800
      C    C209   -11.63700   21.64600   -0.77600
      N    N210   -10.40600   20.80400   -0.89600
      N    N211   -14.63400   24.35400    3.54200
      C    C212   -15.82400   23.59900    3.91800
      C    C213   -17.05600   24.45000    4.12700
      O    O214   -18.16800   24.01300    3.82800
      C    C215   -15.56100   22.79300    5.17600
      N    N216   -16.86800   25.66000    4.65000
      C    C217   -18.00200   26.53100    4.96600
      C    C218   -18.19000   27.69000    3.98200
      O    O219   -19.12500   28.46900    4.12500
      C    C220   -17.93900   27.07300    6.41700
      C    C221   -17.76400   25.92900    7.41200
      C    C222   -16.84400   28.11500    6.59700
      N    N223   -17.31500   27.79300    2.98500
      C    C224   -17.42400   28.83200    1.96300
      C    C225   -17.06500   30.22900    2.44000
      O    O226   -17.75200   31.19700    2.10300
      N    N227   -15.99300   30.32700    3.22500
      C    C228   -15.49200   31.60400    3.72900
      C    C229   -14.00800   31.71100    3.46400
      O    O230   -13.30800   30.69300    3.36700
      C    C231   -15.71000   31.72700    5.23800
      C    C232   -17.16000   31.79200    5.67400
      C    C233   -17.24800   31.81900    7.19300
      C    C234   -18.68500   31.77200    7.67700
      N    N235   -18.74900   31.79000    9.16200
      N    N236   -13.52200   32.94500    3.38300
      C    C237   -12.09900   33.20000    3.21200
      C    C238   -11.34100   32.64000    4.42500
      O    O239   -11.72800   32.90200    5.56800
      C    C240   -11.83900   34.68500    3.10100
      N    N241   -10.25800   31.87500    4.18900
      C    C242    -9.50700   31.32200    5.32400
      C    C243    -9.01000   32.37900    6.31900
      O    O244    -8.99500   32.12500    7.51800
      C    C245    -8.35000   30.60000    4.64500
      C    C246    -8.92800   30.16600    3.33800
      C    C247    -9.77500   31.33100    2.90100
      N    N248    -8.63600   33.56500    5.83300
      C    C249    -8.17000   34.62700    6.73100
      C    C250    -9.25400   35.06900    7.70800
      O    O251    -8.93900   35.66700    8.73800
      C    C252    -7.70500   35.87100    5.94900
      C    C253    -6.38300   35.68100    5.23500
      O    O254    -5.68200   34.66800    5.44400
      O    O255    -6.02900   36.59200    4.45100
      N    N256   -10.52000   34.81300    7.37500
      C    C257   -11.63100   35.23300    8.23400
      C    C258   -12.00700   34.22900    9.31800
      O    O259   -12.83500   34.55300   10.15600
      C    C260   -12.89000   35.51800    7.40400
      O    O261   -13.53200   34.32600    6.96800
      N    N262   -11.42200   33.03400    9.29600
      C    C263   -11.79800   31.98700   10.22700
      C    C264   -11.23300   32.28600   11.61500
      O    O265   -10.02800   32.51100   11.77600
      C    C266   -11.33200   30.60300    9.72600
      C    C267   -11.97000   30.25900    8.36900
      C    C268   -11.63000   29.51800   10.74600
      C    C269   -13.48100   30.26300    8.33000
      N    N270   -12.10800   32.26700   12.60700
      C    C271   -11.72300   32.60200   13.96800
      C    C272   -11.07700   31.40200   14.65000
      O    O273   -11.72300   30.37200   14.85500
      C    C274   -12.95700   33.07200   14.73600
      C    C275   -12.63100   33.70000   16.07400
      O    O276   -11.60400   33.36700   16.70600
      O    O277   -13.44800   34.54100   16.52400
      N    N278    -9.80500   31.55100   15.01300
      C    C279    -9.04900   30.47400   15.62100
      C    C280    -9.25400   30.30700   17.12000
      O    O281    -8.67300   29.38900   17.71500
      C    C282    -7.55200   30.66200   15.36200
      C    C283    -7.11000   30.75200   13.91000
      C    C284    -5.59200   30.81300   13.80000
      O    O285    -4.88400   30.16700   14.61800
      O    O286    -5.06600   31.52500   12.92200
      N    N287   -10.06600   31.18500   17.71600
      C    C288   -10.28400   31.19900   19.16000
      C    C289   -11.62200   30.66300   19.61500
      O    O290   -11.86900   30.59900   20.82000
      C    C291   -10.15700   32.62900   19.67700
      O    O292   -11.30700   33.41800   19.34200
      N    N293   -12.50300   30.34100   18.67800
      C    C294   -13.81500   29.82200   19.05700
      C    C295   -13.78900   28.29200   19.04200
      O    O296   -12.95400   27.68900   18.37800
      C    C297   -14.94000   30.33600   18.13300
      C    C298   -15.04100   31.84900   18.22700
      C    C299   -14.75500   29.87800   16.69900
      N    N300   -14.71400   27.64600   19.76600
      C    C301   -14.77500   26.19600   19.71000
      C    C302   -15.04900   25.76800   18.27600
      O    O303   -15.92100   26.34900   17.60200
      C    C304   -15.93700   25.85000   20.64200
      C    C305   -16.05800   27.03500   21.55000
      C    C306   -15.75000   28.19300   20.65000
      N    N307   -14.34600   24.73900   17.81200
      N    N308   -14.34000   24.75200   17.80000
      C    C309   -14.47000   24.29600   16.42000
      C    C310   -14.48800   24.33300   16.40700
      C    C311   -15.84800   23.76600   16.09300
      C    C312   -15.89600   23.88400   16.10800
      O    O313   -16.22200   23.72900   14.92200
      O    O314   -16.35900   24.06000   14.98100
      C    C315   -13.34600   23.32200   16.07900
      C    C316   -13.44600   23.29400   16.01600
      C    C317   -12.00200   24.06300   16.03600
      C    C318   -12.02800   23.87800   16.06500
     Se   Se319   -10.45600   22.84500   15.90400
     Se   Se320   -10.76900   22.82400   14.98300
      C    C321   -10.41800   22.73200   13.92600
      C    C322   -11.40800   23.28700   13.19500
      N    N323   -16.61300   23.35800   17.11300
      C    C324   -18.01300   22.93200   16.89700
      C    C325   -18.93100   24.11800   16.57300
      O    O326   -20.08200   23.91100   16.18700
      C    C327   -18.62100   22.16200   18.08900
      C    C328   -17.93400   20.81100   18.27000
      C    C329   -18.62400   22.99300   19.38100
      N    N330   -18.42400   25.34600   16.70200
      C    C331   -19.19100   26.55800   16.36700
      C    C332   -18.82600   27.17700   15.01900
      O    O333   -19.36400   28.22100   14.66800
      C    C334   -19.02900   27.62500   17.45600
      C    C335   -19.51100   27.19100   18.81400
      C    C336   -19.28200   28.25000   19.89900
      O    O337   -18.93600   29.41500   19.57800
      O    O338   -19.42000   27.91400   21.08900
      N    N339   -17.98200   26.51200   14.24000
      C    C340   -17.50800   27.06300   12.97900
      C    C341   -18.39400   26.82100   11.76900
      O    O342   -18.11300   27.35800   10.69500
      C    C343   -16.09300   26.57000   12.70400
      C    C344   -14.99200   27.11500   13.62100
      C    C345   -13.69900   26.36600   13.37300
      C    C346   -14.80100   28.60200   13.40300
      N    N347   -19.43000   26.00700   11.92200
      C    C348   -20.35700   25.72400   10.82600
      C    C349   -20.08500   24.42200   10.07000
      O    O350   -20.67400   24.20500    9.01400
      N    N351   -19.21300   23.57300   10.60300
      C    C352   -18.91100   22.30200    9.95800
      C    C353   -20.03100   21.29900   10.18600
      O    O354   -20.69700   21.29900   11.23200
      C    C355   -17.62800   21.71900   10.56400
      C    C356   -16.40600   22.62500   10.40300
      C    C357   -15.29600   22.12800   11.30600
      C    C358   -15.96900   22.69200    8.96000
      N    N359   -20.23800   20.42600    9.21600
      C    C360   -21.16100   19.30000    9.37400
      C    C361   -20.43500   18.14700   10.07000
      O    O362   -19.19200   18.15700   10.21500
      C    C363   -21.63100   18.81000    8.01100
      O    O364   -20.55700   18.21800    7.30900
      N    N365   -21.18900   17.12900   10.48400
      N    N366   -21.20200   17.13100   10.47400
      C    C367   -20.55000   15.95200   11.06800
      C    C368   -20.59600   15.94400   11.07500
      C    C369   -19.63700   15.27500   10.04800
      C    C370   -19.68100   15.22400   10.06900
      O    O371   -18.52500   14.88000   10.38700
      O    O372   -18.61000   14.75700   10.44500
      C    C373   -21.58000   14.96700   11.58800
      C    C374   -21.65800   15.00800   11.65600
      O    O375   -22.28500   15.50500   12.68900
      O    O376   -22.61900   14.61100   10.68900
      N    N377   -20.09100   15.14700    8.79500
      C    C378   -19.23600   14.54700    7.77500
      C    C379   -17.99000   15.39500    7.52700
      O    O380   -16.92200   14.84000    7.24500
      C    C381   -19.97500   14.28700    6.47300
      C    C382   -20.86100   13.06100    6.50300
      C    C383   -21.62000   12.89100    5.21400
      N    N384   -22.32900   11.61700    5.19000
      C    C385   -23.00800   11.16100    4.14800
      N    N386   -23.09800   11.87800    3.03500
      N    N387   -23.61900    9.99200    4.23500
      N    N388   -18.11900   16.72900    7.64000
      C    C389   -16.93300   17.58300    7.53700
      C    C390   -15.92400   17.22600    8.62200
      O    O391   -14.73600   17.15100    8.36200
      C    C392   -17.26300   19.06000    7.70400
      C    C393   -17.95600   19.68900    6.51800
      O    O394   -17.83500   19.21300    5.37000
      O    O395   -18.62500   20.71400    6.77700
      N    N396   -16.40700   17.02700    9.85400
      C    C397   -15.50400   16.66400   10.95200
      C    C398   -14.77100   15.34900   10.65500
      O    O399   -13.57900   15.23200   10.92300
      C    C400   -16.25400   16.60200   12.26200
      N    N401   -15.49800   14.36300   10.13300
      C    C402   -14.90200   13.08400    9.78200
      C    C403   -13.83100   13.27500    8.70500
      O    O404   -12.72700   12.74000    8.82700
      C    C405   -15.96800   12.08400    9.30100
      C    C406   -15.34200   10.77600    8.86000
      C    C407   -16.98200   11.80000   10.40000
      N    N408   -14.16800   14.04400    7.67500
      C    C409   -13.22400   14.28400    6.57600
      C    C410   -11.98500   15.05000    7.05600
      O    O411   -10.86300   14.76400    6.64000
      C    C412   -13.91700   15.02900    5.46200
      N    N413   -12.18700   16.03700    7.92600
      N    N414   -12.19400   16.03400    7.92300
      C    C415   -11.06400   16.82800    8.44300
      C    C416   -11.08100   16.81800    8.44800
      C    C417   -10.16200   15.95600    9.29000
      C    C418   -10.16900   15.93100    9.26000
      O    O419    -8.93400   16.06900    9.21700
      O    O420    -8.94300   16.00200    9.12800
      C    C421   -11.56400   18.05100    9.20600
      C    C422   -11.61500   17.98100    9.26800
      C    C423   -10.41700   19.03700    9.39700
      C    C424   -10.44900   18.81900    9.76800
     Se   Se425   -10.92000   20.54800   10.53600
     Se   Se426   -11.06000   20.17400   11.02900
      C    C427   -10.82300   19.54200   12.24400
      C    C428   -10.48200   21.73100    9.97500
      N    N429   -10.75100   15.08200   10.10700
      C    C430    -9.96200   14.15100   10.90600
      C    C431    -9.13400   13.22700   10.01400
      O    O432    -7.95200   12.97600   10.28900
      C    C433   -10.86100   13.35100   11.84100
      N    N434    -9.74500   12.72100    8.93900
      C    C435    -8.99900   11.88000    8.00000
      C    C436    -7.87100   12.64800    7.35800
      O    O437    -6.77200   12.12000    7.16600
      C    C438    -9.92700   11.34000    6.93100
      N    N439    -8.15700   13.88400    6.97400
      C    C440    -7.15200   14.68900    6.33400
      C    C441    -6.00100   15.03200    7.28400
      O    O442    -4.83700   15.06700    6.86100
      C    C443    -7.78300   15.92400    5.71300
      C    C444    -8.61700   15.63300    4.46300
      O    O445    -8.73200   14.46900    4.02900
      O    O446    -9.17900   16.60200    3.94300
      N    N447    -6.30600   15.28000    8.56200
      C    C448    -5.24900   15.50800    9.53700
      C    C449    -4.36300   14.26100    9.66200
      O    O450    -3.13500   14.36600    9.75300
      C    C451    -5.83300   15.91900   10.90200
      C    C452    -6.40300   17.34300   10.80100
      C    C453    -4.76900   15.81200   11.99700
      C    C454    -7.28000   17.78300   11.94600
      N    N455    -5.00000   13.09300    9.64600
      N    N456    -4.97700   13.07700    9.66300
      C    C457    -4.29400   11.82800    9.72900
      C    C458    -4.18000   11.86300    9.75200
      C    C459    -3.37200   11.62300    8.51600
      C    C460    -3.29800   11.71200    8.51200
      O    O461    -2.26200   11.12800    8.66100
      O    O462    -2.13300   11.34700    8.62500
      C    C463    -5.33800   10.72700    9.86700
      C    C464    -5.05800   10.63700    9.97000
      C    C465    -4.83000    9.32400   10.06700
      C    C466    -4.24800    9.39100   10.25900
      C    C467    -5.98900    8.37200   10.25800
      C    C468    -5.10500    8.17600   10.53000
      O    O469    -6.54200    8.30100   11.38500
      O    O470    -6.20500    8.32000   11.11200
      O    O471    -6.35800    7.70700    9.27900
      O    O472    -4.65300    7.06800   10.18500
      N    N473    -3.83300   12.02400    7.33100
      C    C474    -3.01000   11.93400    6.11500
      C    C475    -1.86400   12.95500    6.10600
      O    O476    -0.81000   12.69000    5.55600
      C    C477    -3.87200   12.08600    4.86700
      C    C478    -4.64300   10.82600    4.52600
      O    O479    -4.40300    9.75600    5.12200
      O    O480    -5.46100   10.90400    3.60000
      N    N481    -2.07800   14.10700    6.71900
      C    C482    -1.06800   15.15000    6.77200
      C    C483     0.05000   14.85000    7.77700
      O    O484     1.21000   15.13400    7.50600
      C    C485    -1.74100   16.47100    7.14200
      C    C486    -0.84000   17.69400    7.30500
      C    C487    -0.26500   18.13100    5.96800
      C    C488    -1.59700   18.83700    7.96200
      N    N489    -0.32700   14.31400    8.93900
      C    C490     0.57000   14.18900   10.08800
      C    C491     0.79400   12.80200   10.62000
      O    O492     1.73000   12.60600   11.41000
      C    C493     0.00800   14.99300   11.29100
      O    O494    -1.19700   14.38400   11.76500
      C    C495    -0.21600   16.43800   10.94600
      N    N496    -0.07000   11.86200   10.25700
      C    C497    -0.10100   10.54300   10.92000
      C    C498    -0.86200   10.48600   12.24200
      O    O499    -0.98500    9.40500   12.84700
      N    N500    -1.34100   11.62500   12.73200
      C    C501    -2.05600   11.65100   14.00700
      C    C502    -3.50900   11.27000   13.78300
      O    O503    -4.17900   11.88000   12.95700
      C    C504    -1.98000   13.05300   14.65300
      C    C505    -2.83600   13.13800   15.91900
      C    C506    -0.54300   13.42400   14.98300
      N    N507    -3.97500   10.25400   14.51200
      C    C508    -5.38600    9.91500   14.56200
      C    C509    -5.90000   10.68700   15.77300
      O    O510    -5.64800   10.31100   16.92500
      C    C511    -5.63700    8.41500   14.73400
      O    O512    -5.13600    7.69700   13.60600
      C    C513    -7.12400    8.13900   14.90700
      N    N514    -6.61200   11.76900   15.51800
      N    N515    -6.59500   11.79400   15.53300
      C    C516    -7.05800   12.65300   16.58000
      C    C517    -7.06600   12.59600   16.65900
      C    C518    -8.16300   12.02900   17.45400
      C    C519    -8.10200   11.87000   17.46100
      O    O520    -9.22200   11.66400   16.92200
      O    O521    -9.05200   11.30200   16.90400
      C    C522    -7.55000   13.92800   15.90800
      C    C523    -7.68500   13.90400   16.20400
      C    C524    -7.98500   15.05300   16.81400
      C    C525    -6.71500   15.00900   15.84900
      C    C526    -6.83900   15.48200   17.72400
      C    C527    -7.49200   16.14800   15.21900
      C    C528    -8.51400   16.21900   15.98800
      C    C529    -5.92400   15.47500   17.06100
      N    N530    -7.92000   11.89700   18.77300
      C    C531    -8.91300   11.34800   19.67800
      C    C532    -9.93000   12.41300   20.06000
      O    O533    -9.62700   13.61800   20.06400
      C    C534    -8.27200   10.78500   20.94500
      O    O535    -7.67600   11.82500   21.69300
      N    N536   -11.12900   11.95800   20.42000
      C    C537   -12.12600   12.87000   20.97900
      C    C538   -11.57200   13.59900   22.19700
      O    O539   -11.76300   14.80600   22.34600
      C    C540   -13.41900   12.09200   21.36400
      C    C541   -14.35000   12.92100   22.22600
      C    C542   -14.13000   11.64000   20.10900
      N    N543   -10.86100   12.86900   23.04200
      C    C544   -10.32000   13.47900   24.25400
      C    C545    -9.37100   14.64800   23.91600
      O    O546    -9.47600   15.74000   24.48700
      C    C547    -9.62300   12.43200   25.10800
      N    N548    -8.41200   14.40600   23.03500
      C    C549    -7.45700   15.45700   22.70100
      C    C550    -8.14900   16.62900   22.02700
      O    O551    -7.85500   17.80100   22.31200
      C    C552    -6.29400   14.94700   21.82900
      C    C553    -5.47900   16.08500   21.22300
      C    C554    -5.39500   13.99900   22.58100
      N    N555    -9.07300   16.33300   21.12200
      C    C556    -9.73700   17.37500   20.35700
      C    C557   -10.56900   18.28500   21.26600
      O    O558   -10.46600   19.51300   21.17700
      C    C559   -10.60000   16.75800   19.25900
      N    N560   -11.37200   17.70600   22.15500
      C    C561   -12.19500   18.53100   23.02100
      C    C562   -11.40100   19.18700   24.14400
      O    O563   -11.85700   20.18300   24.70400
      C    C564   -13.43000   17.79400   23.49700
      C    C565   -14.48400   17.69700   22.43700
      C    C566   -15.35200   18.75200   22.21100
      C    C567   -14.55900   16.59700   21.61400
      C    C568   -16.31500   18.67200   21.23400
      C    C569   -15.52500   16.50700   20.63600
      C    C570   -16.40600   17.54700   20.44500
      N    N571   -10.22100   18.65400   24.45100
      C    C572    -9.32400   19.29800   25.41000
      C    C573    -8.61100   20.50300   24.79300
      O    O574    -8.09900   21.35800   25.52000
      C    C575    -8.29700   18.31700   25.96000
      N    N576    -8.55300   20.55300   23.45100
      C    C577    -7.90200   21.64300   22.70100
      C    C578    -8.88200   22.05000   21.60500
      O    O579    -8.63800   21.83400   20.41500
      C    C580    -6.58600   21.13500   22.09000
      C    C581    -5.66900   20.54000   23.10800
      N    N582    -5.82100   19.25300   23.58300
      C    C583    -4.63600   21.07300   23.78900
      C    C584    -4.91400   19.02900   24.52900
      N    N585    -4.17700   20.11200   24.65900
      N    N586   -10.01900   22.63900   22.00500
      C    C587   -11.17300   22.71000   21.11600
      C    C588   -11.22400   23.86500   20.14900
      O    O589   -12.25400   24.05100   19.51100
      C    C590   -12.33800   22.76600   22.10800
      C    C591   -11.77200   23.57000   23.24700
      C    C592   -10.36500   23.06000   23.38000
      N    N593   -10.14100   24.62100   20.01400
      C    C594   -10.06400   25.77600   19.13500
      C    C595    -8.98300   25.50700   18.09700
      O    O596    -8.08200   24.70400   18.32900
      C    C597    -9.75200   27.05900   19.91600
      O    O598    -8.40600   26.99300   20.41100
      C    C599   -10.72200   27.24200   21.07800
      N    N600    -9.04900   26.18200   16.95300
      C    C601    -8.00500   25.95300   15.95400
      C    C602    -6.62600   26.20000   16.53000
      O    O603    -5.69900   25.42500   16.30500
      C    C604    -8.21600   26.79900   14.67900
      C    C605    -9.37800   26.22400   13.87500
      C    C606    -6.93700   26.90300   13.86000
      C    C607    -9.85300   27.13400   12.75100
      N    N608    -6.45700   27.31200   17.24100
      C    C609    -5.10800   27.63300   17.68000
      C    C610    -4.57200   26.64000   18.70100
      O    O611    -3.40500   26.28000   18.63800
      C    C612    -5.00900   29.08400   18.12900
      C    C613    -5.86400   29.43600   19.31800
      C    C614    -6.21400   30.92500   19.46500
      O    O615    -5.80800   31.76400   18.65100
      O    O616    -6.94400   31.27500   20.38600
      N    N617    -5.42600   26.17100   19.61900
      C    C618    -4.97100   25.19100   20.61900
      C    C619    -4.78500   23.80900   19.99700
      O    O620    -3.82700   23.10800   20.31300
      C    C621    -5.90000   25.17300   21.82900
      O    O622    -7.22000   24.77100   21.53600
      N    N623    -5.69400   23.41800   19.11200
      C    C624    -5.57000   22.12400   18.45400
      C    C625    -4.30100   22.06800   17.61900
      O    O626    -3.56100   21.08500   17.65100
      C    C627    -6.78200   21.84000   17.57500
      C    C628    -6.76800   20.46000   16.91000
      C    C629    -6.85400   19.34100   17.93100
      C    C630    -7.86800   20.34100   15.87300
      N    N631    -4.05200   23.12400   16.84700
      C    C632    -2.86500   23.15300   16.00000
      C    C633    -1.59700   23.00500   16.82200
      O    O634    -0.69600   22.25800   16.45200
      C    C635    -2.81900   24.42700   15.19800
      N    N636    -1.54100   23.72800   17.93500
      C    C637    -0.37200   23.65900   18.79700
      C    C638    -0.17000   22.23400   19.31300
      O    O639     0.94700   21.70100   19.30300
      C    C640    -0.48700   24.66300   19.94800
      O    O641    -0.63000   25.97700   19.39200
      C    C642     0.71900   24.60300   20.83700
      N    N643    -1.25100   21.59600   19.76700
      N    N644    -1.26200   21.61900   19.75500
      C    C645    -1.14100   20.24600   20.31800
      C    C646    -1.19700   20.28300   20.29400
      C    C647    -0.81500   19.18600   19.26400
      C    C648    -0.75900   19.26500   19.25000
      O    O649    -0.09300   18.23300   19.54700
      O    O650     0.12900   18.45400   19.51200
      C    C651    -2.41900   19.89300   21.07000
      C    C652    -2.55300   19.90400   20.86200
      C    C653    -2.51600   18.45500   21.55000
      C    C654    -2.54500   18.59000   21.60300
      C    C655    -1.37900   18.04900   22.48000
      C    C656    -1.42900   18.58100   22.63100
      N    N657    -1.72200   16.80200   23.15700
      N    N658    -1.67900   17.61100   23.67500
      C    C659    -2.05500   16.63500   24.44700
      C    C660    -1.51700   16.29900   23.52400
      N    N661    -2.02600   17.62400   25.34400
      N    N662    -1.11500   15.80200   22.35900
      N    N663    -2.36300   15.42400   24.85800
      N    N664    -1.78200   15.48400   24.52600
      N    N665    -1.34800   19.33200   18.05900
      C    C666    -1.00700   18.36700   17.00300
      C    C667     0.49800   18.37600   16.75100
      O    O668     1.12900   17.32500   16.59400
      C    C669    -1.76500   18.65700   15.69800
      C    C670    -3.24900   18.31600   15.87800
      C    C671    -1.17000   17.84400   14.55500
      C    C672    -4.13200   18.83900   14.77500
      N    N673     1.07300   19.57400   16.68000
      C    C674     2.49700   19.71200   16.36900
      C    C675     3.40400   19.40700   17.55700
      O    O676     4.39500   18.69700   17.42300
      C    C677     2.79400   21.12000   15.81700
      C    C678     1.97600   21.39900   14.54800
      C    C679     4.28600   21.34200   15.58200
      C    C680     2.18600   20.41200   13.41500
      N    N681     3.06400   19.96000   18.72000
      C    C682     3.95800   19.87100   19.86700
      C    C683     3.73400   18.67000   20.75800
      O    O684     4.63900   18.33600   21.53000
      C    C685     3.90300   21.19000   20.66100
      C    C686     4.34300   22.36900   19.79200
      C    C687     4.44700   23.70800   20.50500
      O    O688     4.05000   23.82300   21.67200
      O    O689     4.91600   24.67800   19.87300
      N    N690     2.58600   18.00900   20.67100
      C    C691     2.30900   16.82400   21.50300
      C    C692     2.17400   17.16400   22.97400
      O    O693     2.11100   18.33700   23.34100
      N    N694     2.13500   16.14600   23.83000
      C    C695     2.02500   16.40800   25.26800
      C    C696     3.37000   16.90300   25.78400
      O    O697     4.42200   16.42200   25.34700
      C    C698     1.59900   15.16700   26.04400
      C    C699     1.22200   15.48900   27.48900
      C    C700     0.93400   14.26500   28.33500
      O    O701     1.27100   13.13500   27.91300
      O    O702     0.38200   14.44400   29.44400
